ligand.pdb
  1228              3D

 22 21  0  0  0  0  0  0  0  0999 V2000
    2.6836   -0.2340   -1.1939 N   0  0  0  0  0  0  0  0  0  0  0  0
    2.0610    0.3294    0.0066 C   0  0  0  0  0  0  0  0  0  0  0  0
    1.0031    0.0342    0.0276 H   0  0  0  0  0  0  0  0  0  0  0  0
    2.7807   -0.1274    1.2820 C   0  0  0  0  0  0  0  0  0  0  0  0
    2.8689   -1.9516    1.4120 S   0  0  0  0  0  0  0  0  0  0  0  0
    1.2835   -2.2462    2.2523 C   0  0  0  0  0  0  0  0  0  0  0  0
    1.1041   -3.7338    2.5433 C   0  0  0  0  0  0  0  0  0  0  0  0
    0.0594   -3.9602    3.5416 N   0  0  0  0  0  0  0  0  0  0  0  0
    2.1416    1.8452   -0.0922 C   0  0  0  0  0  0  0  0  0  0  0  0
    2.8801    2.4673   -0.8464 O   0  0  0  0  0  0  0  0  0  0  0  0
    1.3409    2.4547    0.8225 O   0  0  0  0  0  0  0  0  0  0  0  0
    3.6989   -0.1707   -1.1311 H   0  0  0  0  0  0  0  0  0  0  0  0
    2.4146    0.3000   -2.0172 H   0  0  0  0  0  0  0  0  0  0  0  0
    3.8067    0.2573    1.3232 H   0  0  0  0  0  0  0  0  0  0  0  0
    2.2667    0.2640    2.1684 H   0  0  0  0  0  0  0  0  0  0  0  0
    1.2873   -1.6561    3.1734 H   0  0  0  0  0  0  0  0  0  0  0  0
    0.4698   -1.8890    1.6124 H   0  0  0  0  0  0  0  0  0  0  0  0
    2.0380   -4.1838    2.8996 H   0  0  0  0  0  0  0  0  0  0  0  0
    0.8123   -4.2595    1.6264 H   0  0  0  0  0  0  0  0  0  0  0  0
   -0.3283   -3.0766    3.8679 H   0  0  0  0  0  0  0  0  0  0  0  0
    0.4594   -4.4139    4.3632 H   0  0  0  0  0  0  0  0  0  0  0  0
    0.4561    2.0455    0.9292 H   0  0  0  0  0  0  0  0  0  0  0  0
  2  1  1  0  0  0  0
  2  3  1  0  0  0  0
  4  2  1  0  0  0  0
  5  4  1  0  0  0  0
  6  5  1  0  0  0  0
  7  6  1  0  0  0  0
  8  7  1  0  0  0  0
  9  2  1  0  0  0  0
 10  9  2  0  0  0  0
 11  9  1  0  0  0  0
  1 12  1  0  0  0  0
  1 13  1  0  0  0  0
  4 14  1  0  0  0  0
  4 15  1  0  0  0  0
  6 16  1  0  0  0  0
  6 17  1  0  0  0  0
  7 18  1  0  0  0  0
  7 19  1  0  0  0  0
  8 20  1  0  0  0  0
  8 21  1  0  0  0  0
 11 22  1  0  0  0  0
M  END
>  <energy>
14.755999400178805

$$$$
