2CKY_TPP_A_1084
  1228              3D

 45 46  0  0  0  0  0  0  0  0999 V2000
    3.6555   -3.3445    0.2512 N   0  0  0  0  0  0  0  0  0  0  0  0
    4.1373   -2.0908    0.1740 C   0  0  0  0  0  0  0  0  0  0  0  0
    5.5926   -1.8934    0.4533 C   0  0  0  0  0  0  0  0  0  0  0  0
    3.4017   -0.9896   -0.0977 N   0  0  0  0  0  0  0  0  0  0  0  0
    2.1254   -1.1792   -0.5203 C   0  0  0  0  0  0  0  0  0  0  0  0
    1.3863   -0.0471   -0.9282 N   0  0  0  0  0  0  0  0  0  0  0  0
    1.5620   -2.4557   -0.5793 C   0  0  0  0  0  0  0  0  0  0  0  0
    2.3700   -3.4870   -0.1172 C   0  0  0  0  0  0  0  0  0  0  0  0
    0.2635   -2.7798   -1.2712 C   0  0  0  0  0  0  0  0  0  0  0  0
   -0.9069   -2.9128   -0.3844 N   0  3  0  0  0  0  0  0  0  0  0  0
   -0.8349   -2.9109    0.9374 C   0  0  0  0  0  0  0  0  0  0  0  0
   -2.3848   -2.9634    1.6543 S   0  0  0  0  0  0  0  0  0  0  0  0
   -3.1276   -3.2560    0.1313 C   0  0  0  0  0  0  0  0  0  0  0  0
   -2.2060   -3.0427   -0.8824 C   0  0  0  0  0  0  0  0  0  0  0  0
   -2.4065   -3.3775   -2.3224 C   0  0  0  0  0  0  0  0  0  0  0  0
   -4.6288   -3.2727    0.0362 C   0  0  0  0  0  0  0  0  0  0  0  0
   -5.1719   -4.6799    0.2419 C   0  0  0  0  0  0  0  0  0  0  0  0
   -6.5828   -4.6358    0.0725 O   0  0  0  0  0  0  0  0  0  0  0  0
   -7.4434   -5.9597   -0.2783 P   0  0  0  0  0  0  0  0  0  0  0  0
   -8.6608   -5.6990   -1.1179 O   0  0  0  0  0  0  0  0  0  0  0  0
   -6.3928   -6.9975   -0.9388 O   0  0  0  0  0  0  0  0  0  0  0  0
   -7.7509   -6.6268    1.1605 O   0  0  0  0  0  0  0  0  0  0  0  0
   -8.2431   -6.0124    2.5691 P   0  0  0  0  0  0  0  0  0  0  0  0
   -7.1595   -5.4055    3.4112 O   0  0  0  0  0  0  0  0  0  0  0  0
   -9.0307   -7.2445    3.2591 O   0  0  0  0  0  0  0  0  0  0  0  0
   -9.4367   -5.0046    2.1536 O   0  0  0  0  0  0  0  0  0  0  0  0
    6.0782   -1.4431   -0.4183 H   0  0  0  0  0  0  0  0  0  0  0  0
    6.0863   -2.8478    0.6622 H   0  0  0  0  0  0  0  0  0  0  0  0
    5.7279   -1.2348    1.3155 H   0  0  0  0  0  0  0  0  0  0  0  0
    0.3848   -0.1741   -0.8048 H   0  0  0  0  0  0  0  0  0  0  0  0
    1.6813    0.7700   -0.3971 H   0  0  0  0  0  0  0  0  0  0  0  0
    1.9553   -4.4784    0.0519 H   0  0  0  0  0  0  0  0  0  0  0  0
    0.3751   -3.7226   -1.8216 H   0  0  0  0  0  0  0  0  0  0  0  0
    0.0441   -1.9990   -2.0091 H   0  0  0  0  0  0  0  0  0  0  0  0
    0.0675   -2.8142    1.5202 H   0  0  0  0  0  0  0  0  0  0  0  0
   -3.3633   -2.9816   -2.6779 H   0  0  0  0  0  0  0  0  0  0  0  0
   -1.6394   -2.9669   -2.9810 H   0  0  0  0  0  0  0  0  0  0  0  0
   -2.4225   -4.4650   -2.4539 H   0  0  0  0  0  0  0  0  0  0  0  0
   -5.0644   -2.5898    0.7766 H   0  0  0  0  0  0  0  0  0  0  0  0
   -4.9433   -2.8941   -0.9446 H   0  0  0  0  0  0  0  0  0  0  0  0
   -4.9586   -5.0411    1.2527 H   0  0  0  0  0  0  0  0  0  0  0  0
   -4.7211   -5.3619   -0.4848 H   0  0  0  0  0  0  0  0  0  0  0  0
   -6.7342   -7.7708   -1.4350 H   0  0  0  0  0  0  0  0  0  0  0  0
   -9.2655   -8.0274    2.7161 H   0  0  0  0  0  0  0  0  0  0  0  0
   -9.2352   -4.0521    2.0367 H   0  0  0  0  0  0  0  0  0  0  0  0
  2  1  2  0  0  0  0
  3  2  1  0  0  0  0
  4  2  1  0  0  0  0
  5  4  2  0  0  0  0
  6  5  1  0  0  0  0
  7  5  1  0  0  0  0
  8  7  2  0  0  0  0
  8  1  1  0  0  0  0
  9  7  1  0  0  0  0
 10  9  1  0  0  0  0
 11 10  2  0  0  0  0
 12 11  1  0  0  0  0
 13 12  1  0  0  0  0
 14 13  2  0  0  0  0
 14 10  1  0  0  0  0
 15 14  1  0  0  0  0
 16 13  1  0  0  0  0
 17 16  1  0  0  0  0
 18 17  1  0  0  0  0
 19 18  1  0  0  0  0
 20 19  2  0  0  0  0
 21 19  1  0  0  0  0
 22 19  1  0  0  0  0
 23 22  1  0  0  0  0
 24 23  2  0  0  0  0
 25 23  1  0  0  0  0
 26 23  1  0  0  0  0
  3 27  1  0  0  0  0
  3 28  1  0  0  0  0
  3 29  1  0  0  0  0
  6 30  1  0  0  0  0
  6 31  1  0  0  0  0
  8 32  1  0  0  0  0
  9 33  1  0  0  0  0
  9 34  1  0  0  0  0
 11 35  1  0  0  0  0
 15 36  1  0  0  0  0
 15 37  1  0  0  0  0
 15 38  1  0  0  0  0
 16 39  1  0  0  0  0
 16 40  1  0  0  0  0
 17 41  1  0  0  0  0
 17 42  1  0  0  0  0
 21 43  1  0  0  0  0
 25 44  1  0  0  0  0
 26 45  1  0  0  0  0
M  CHG  1  10   1
M  END
>  <energy>
22.046509018526436

$$$$
