3GAO_XAN_A_90
  1228              3D

 15 16  0  0  0  0  0  0  0  0999 V2000
    1.7982   -0.8081   -0.1374 N   0  0  0  0  0  0  0  0  0  0  0  0
    2.2110   -1.7303   -0.1940 H   0  0  0  0  0  0  0  0  0  0  0  0
    0.4782   -0.4955   -0.0421 C   0  0  0  0  0  0  0  0  0  0  0  0
   -0.5990   -1.3308   -0.0953 N   0  0  0  0  0  0  0  0  0  0  0  0
   -0.5110   -2.3345   -0.1824 H   0  0  0  0  0  0  0  0  0  0  0  0
   -1.8633   -0.7772   -0.0114 C   0  0  0  0  0  0  0  0  0  0  0  0
   -2.8666   -1.4857   -0.0396 O   0  0  0  0  0  0  0  0  0  0  0  0
   -1.9384    0.6034    0.1072 N   0  0  0  0  0  0  0  0  0  0  0  0
   -2.8606    1.0055    0.1627 H   0  0  0  0  0  0  0  0  0  0  0  0
   -0.8846    1.5112    0.1521 C   0  0  0  0  0  0  0  0  0  0  0  0
   -1.0565    2.7212    0.2554 O   0  0  0  0  0  0  0  0  0  0  0  0
    0.4068    0.8685    0.0538 C   0  0  0  0  0  0  0  0  0  0  0  0
    1.6617    1.4109    0.0967 N   0  0  0  0  0  0  0  0  0  0  0  0
    2.4751    0.3811   -0.0168 C   0  0  0  0  0  0  0  0  0  0  0  0
    3.5489    0.4602   -0.1088 H   0  0  0  0  0  0  0  0  0  0  0  0
  1  2  1  0  0  0  0
  3  1  1  0  0  0  0
  4  3  1  0  0  0  0
  4  5  1  0  0  0  0
  6  4  1  0  0  0  0
  7  6  2  0  0  0  0
  8  6  1  0  0  0  0
  8  9  1  0  0  0  0
 10  8  1  0  0  0  0
 11 10  2  0  0  0  0
 12 10  1  0  0  0  0
 12  3  2  0  0  0  0
 13 12  1  0  0  0  0
 14 13  2  0  0  0  0
 14  1  1  0  0  0  0
 14 15  1  0  0  0  0
M  END
>  <energy>
-44.689925415697815

$$$$
