
  1228              3D

 26 25  0  0  0  0  0  0  0  0999 V2000
   -3.3241    0.3903    0.8663 N   0  0  0  0  0  0  0  0  0  0  0  0
   -2.3415   -0.0902   -0.1020 C   0  0  0  0  0  0  0  0  0  0  0  0
   -1.9208    0.7532   -0.6631 H   0  0  0  0  0  0  0  0  0  0  0  0
   -3.1219   -0.9396   -1.0894 C   0  0  0  0  0  0  0  0  0  0  0  0
   -2.6138   -1.7969   -1.8087 O   0  0  0  0  0  0  0  0  0  0  0  0
   -1.2221   -0.9135    0.5634 C   0  0  0  0  0  0  0  0  0  0  0  0
   -0.3100   -0.0659    1.4650 C   0  0  0  0  0  0  0  0  0  0  0  0
    0.8988   -0.8386    2.0007 C   0  0  0  0  0  0  0  0  0  0  0  0
    0.6230   -1.4207    3.3269 N   0  0  0  0  0  0  0  0  0  0  0  0
    1.4122   -2.4388    3.8635 C   0  0  0  0  0  0  0  0  0  0  0  0
    1.8385   -2.3466    5.1848 N   0  3  0  0  0  0  0  0  0  0  0  0
    1.6186   -1.5331    5.7540 H   0  0  0  0  0  0  0  0  0  0  0  0
    2.3644   -3.0983    5.6246 H   0  0  0  0  0  0  0  0  0  0  0  0
    1.7440   -3.5621    3.1146 N   0  0  0  0  0  0  0  0  0  0  0  0
   -3.7411    1.2564    0.5266 H   0  0  0  0  0  0  0  0  0  0  0  0
   -2.8743    0.6311    1.7466 H   0  0  0  0  0  0  0  0  0  0  0  0
   -4.2031   -0.7282   -1.1747 H   0  0  0  0  0  0  0  0  0  0  0  0
   -0.6041   -1.3685   -0.2221 H   0  0  0  0  0  0  0  0  0  0  0  0
   -1.6574   -1.7365    1.1445 H   0  0  0  0  0  0  0  0  0  0  0  0
   -0.8832    0.3299    2.3101 H   0  0  0  0  0  0  0  0  0  0  0  0
    0.0532    0.7998    0.8988 H   0  0  0  0  0  0  0  0  0  0  0  0
    1.7448   -0.1547    2.1261 H   0  0  0  0  0  0  0  0  0  0  0  0
    1.2054   -1.6288    1.3095 H   0  0  0  0  0  0  0  0  0  0  0  0
    0.0064   -0.9251    3.9682 H   0  0  0  0  0  0  0  0  0  0  0  0
    2.1195   -4.3967    3.5598 H   0  0  0  0  0  0  0  0  0  0  0  0
    1.7221   -3.5506    2.0993 H   0  0  0  0  0  0  0  0  0  0  0  0
  2  1  1  0  0  0  0
  2  3  1  0  0  0  0
  4  2  1  0  0  0  0
  5  4  2  0  0  0  0
  6  2  1  0  0  0  0
  7  6  1  0  0  0  0
  8  7  1  0  0  0  0
  9  8  1  0  0  0  0
 10  9  1  0  0  0  0
 11 10  2  0  0  0  0
 11 12  1  0  0  0  0
 11 13  1  0  0  0  0
 14 10  1  0  0  0  0
  1 15  1  0  0  0  0
  1 16  1  0  0  0  0
  4 17  1  0  0  0  0
  6 18  1  0  0  0  0
  6 19  1  0  0  0  0
  7 20  1  0  0  0  0
  7 21  1  0  0  0  0
  8 22  1  0  0  0  0
  8 23  1  0  0  0  0
  9 24  1  0  0  0  0
 14 25  1  0  0  0  0
 14 26  1  0  0  0  0
M  CHG  1  11   1
M  END
>  <energy>
19.750073578764358

$$$$
