molecule_with_no_title
 OpenBabel07072012113D
libRbt.so/2013.1/901 2013/11/27
 36 39  0  0  0  0  0  0  0  0999 V2000
    8.2853  -22.9299    5.9086 N   0  0  0  0  0  0  0  0  0  0  0  0
    5.9927  -20.3721    6.9039 C   0  0  0  0  0  0  0  0  0  0  0  0
    5.9398  -21.5925    6.9501 O   0  0  0  0  0  0  0  0  0  0  0  0
    7.1244  -19.5962    6.2831 C   0  0  0  0  0  0  0  0  0  0  0  0
    7.2605  -25.1711    3.1191 N   0  0  0  0  0  0  0  0  0  0  0  0
    5.0193  -19.5836    7.4012 O   0  0  0  0  0  0  0  0  0  0  0  0
    7.9921  -20.4582    5.3713 C   0  0  0  0  0  0  0  0  0  0  0  0
    8.1320  -27.3048    1.4351 N   0  0  0  0  0  0  0  0  0  0  0  0
    6.4335  -28.3561    6.3592 O   0  0  0  0  0  0  0  0  0  0  0  0
    8.7974  -21.5522    6.0962 C   0  0  0  0  0  0  0  0  0  0  0  0
    7.1812  -29.1058    4.3987 N   0  0  0  0  0  0  0  0  0  0  0  0
    8.0070  -29.9362    2.4465 O   0  0  0  0  0  0  0  0  0  0  0  0
    8.1892  -23.2981    4.4713 C   0  0  0  0  0  0  0  0  0  0  0  0
    6.8571  -26.7981    4.7743 N   0  0  0  0  0  0  0  0  0  0  0  0
    6.9206  -24.0766    4.0337 C   0  0  0  0  0  0  0  0  0  0  0  0
    7.7183  -24.8932    1.8148 C   0  0  0  0  0  0  0  0  0  0  0  0
    8.1547  -25.9627    1.0044 C   0  0  0  0  0  0  0  0  0  0  0  0
    7.6982  -27.5673    2.6325 C   0  0  0  0  0  0  0  0  0  0  0  0
    7.6516  -28.9887    3.1261 C   0  0  0  0  0  0  0  0  0  0  0  0
    6.8077  -28.0856    5.2226 C   0  0  0  0  0  0  0  0  0  0  0  0
    7.2422  -26.4818    3.5751 C   0  0  0  0  0  0  0  0  0  0  0  0
    8.6381  -25.7105   -0.2862 C   0  0  0  0  0  0  0  0  0  0  0  0
    8.7002  -24.4105   -0.8139 C   0  0  0  0  0  0  0  0  0  0  0  0
    9.2517  -24.2053   -2.1969 C   0  0  0  0  0  0  0  0  0  0  0  0
    8.2502  -23.3403   -0.0279 C   0  0  0  0  0  0  0  0  0  0  0  0
    8.2654  -21.9067   -0.4890 C   0  0  0  0  0  0  0  0  0  0  0  0
    7.7647  -23.6004    1.2667 C   0  0  0  0  0  0  0  0  0  0  0  0
    9.1206  -23.9421    6.6137 C   0  0  0  0  0  0  0  0  0  0  0  0
    8.3404  -24.7384    7.6311 C   0  0  0  0  0  0  0  0  0  0  0  0
    8.9866  -25.2896    8.7446 C   0  0  0  0  0  0  0  0  0  0  0  0
    8.3387  -26.2454    9.5233 C   0  0  0  0  0  0  0  0  0  0  0  0
    7.0314  -26.6218    9.2211 C   0  0  0  0  0  0  0  0  0  0  0  0
    6.3471  -26.0016    8.1785 C   0  0  0  0  0  0  0  0  0  0  0  0
    6.9965  -25.0559    7.3889 C   0  0  0  0  0  0  0  0  0  0  0  0
    5.1892  -18.6345    7.2302 H   0  0  0  0  0  0  0  0  0  0  0  0
    7.1230  -30.0307    4.7914 H   0  0  0  0  0  0  0  0  0  0  0  0
  1 10  1  0  0  0  0
  1 13  1  0  0  0  0
  1 28  1  0  0  0  0
  2  4  1  0  0  0  0
  2  3  2  0  0  0  0
  2  6  1  0  0  0  0
  4  7  1  0  0  0  0
  5 15  1  0  0  0  0
  5 16  1  0  0  0  0
  5 21  1  0  0  0  0
  6 35  1  0  0  0  0
  7 10  1  0  0  0  0
  8 17  1  0  0  0  0
  9 20  2  0  0  0  0
 11 19  1  0  0  0  0
 11 20  1  0  0  0  0
 11 36  1  0  0  0  0
 12 19  2  0  0  0  0
 13 15  1  0  0  0  0
 14 20  1  0  0  0  0
 14 21  2  0  0  0  0
 16 17  2  0  0  0  0
 16 27  1  0  0  0  0
 17 22  1  0  0  0  0
 18  8  2  0  0  0  0
 18 19  1  0  0  0  0
 18 21  1  0  0  0  0
 22 23  2  0  0  0  0
 23 24  1  0  0  0  0
 23 25  1  0  0  0  0
 25 26  1  0  0  0  0
 25 27  2  0  0  0  0
 28 29  1  0  0  0  0
 29 30  2  0  0  0  0
 29 34  1  0  0  0  0
 30 31  1  0  0  0  0
 31 32  2  0  0  0  0
 32 33  1  0  0  0  0
 33 34  2  0  0  0  0
M  END
>  <CHROM.0>
-62.26345342,56.61171563,-167.99271508,-164.76441285,-67.61396302,-69.41518446
111.78553094,-64.76952336,56.57092164,-55.44374294,-73.81535491,59.20342728
-173.43361703,-67.71641530,-53.63295027,55.19385101,-175.17669910,-169.43411583

>  <CHROM.1>
55.98976891,-138.09781708,120.82549652,16.58080514,-176.20024743,-67.08535518
-69.19704418,106.12484728,-137.14001276,-152.64716309,7.60448947,-24.74990909
4.38724242,-2.89671061,-1.42088842,2.95875971

>  <Name>


>  <RI>
3.63382e+07

>  <Rbt.Current_Directory>
/home/fstefaniak/gitlab/AnnapuRNA-publication/case_studies/6DN2/2YIE

>  <Rbt.Executable>
rbdock ($Id: //depot/dev/client3/rdock/2013.1/src/exe/rbdock.cxx#4 $)

>  <Rbt.Library>
libRbt.so (2013.1, Build901 2013/11/27)

>  <Rbt.Parameter_File>
/home/fstefaniak/progs/rDock//data/scripts/dock_solv.prm

>  <Rbt.Receptor>
system.prm

>  <SCORE>
-83.5337

>  <SCORE.INTER>
-58.9274

>  <SCORE.INTER.CONST>
1

>  <SCORE.INTER.POLAR>
-4.17325

>  <SCORE.INTER.ROT>
9

>  <SCORE.INTER.SOLV>
20.3742

>  <SCORE.INTER.VDW>
-41.7655

>  <SCORE.INTER.norm>
-1.73316

>  <SCORE.INTRA>
5.51097

>  <SCORE.INTRA.DIHEDRAL>
12.1926

>  <SCORE.INTRA.DIHEDRAL.0>
6.40188

>  <SCORE.INTRA.POLAR>
0

>  <SCORE.INTRA.POLAR.0>
0

>  <SCORE.INTRA.REPUL>
0

>  <SCORE.INTRA.REPUL.0>
0

>  <SCORE.INTRA.SOLV>
1.01436

>  <SCORE.INTRA.SOLV.lig_0>
-26.6032

>  <SCORE.INTRA.VDW>
-1.0925

>  <SCORE.INTRA.VDW.0>
-0.660127

>  <SCORE.INTRA.norm>
0.162087

>  <SCORE.RESTR>
0

>  <SCORE.RESTR.CAVITY>
0

>  <SCORE.RESTR.norm>
0

>  <SCORE.SYSTEM>
-30.1172

>  <SCORE.SYSTEM.CONST>
0

>  <SCORE.SYSTEM.DIHEDRAL>
15.5408

>  <SCORE.SYSTEM.POLAR>
-6.61712

>  <SCORE.SYSTEM.SOLV>
-0.583169

>  <SCORE.SYSTEM.VDW>
-3.00693

>  <SCORE.SYSTEM.norm>
-0.8858

>  <SCORE.heavy>
34

>  <SCORE.norm>
-2.45687

>  <Pose_Number>
20

>  <AnnapuRNA Score>
-328.189653642

$$$$
