
 OpenBabel07072011493D
libRbt.so/2013.1/901 2013/11/27
 36 39  0  0  0  0  0  0  0  0999 V2000
    7.5575  -21.9490    5.2609 N   0  0  0  0  0  0  0  0  0  0  0  0
    9.3919  -17.5587    7.0018 C   0  0  0  0  0  0  0  0  0  0  0  0
    9.0947  -16.5282    6.4153 O   0  0  0  0  0  0  0  0  0  0  0  0
    9.7058  -18.8627    6.3169 C   0  0  0  0  0  0  0  0  0  0  0  0
    7.2455  -25.0922    3.0772 N   0  0  0  0  0  0  0  0  0  0  0  0
    9.4834  -17.6297    8.3446 O   0  0  0  0  0  0  0  0  0  0  0  0
    8.4753  -19.7507    6.1600 C   0  0  0  0  0  0  0  0  0  0  0  0
    8.4329  -27.1825    1.5381 N   0  0  0  0  0  0  0  0  0  0  0  0
    6.5513  -28.2268    6.3966 O   0  0  0  0  0  0  0  0  0  0  0  0
    8.7624  -21.1527    5.5922 C   0  0  0  0  0  0  0  0  0  0  0  0
    7.4910  -28.9647    4.5159 N   0  0  0  0  0  0  0  0  0  0  0  0
    8.5160  -29.7742    2.6513 O   0  0  0  0  0  0  0  0  0  0  0  0
    7.9035  -23.2345    4.5986 C   0  0  0  0  0  0  0  0  0  0  0  0
    6.9098  -26.6915    4.7740 N   0  0  0  0  0  0  0  0  0  0  0  0
    6.7397  -24.0070    3.9235 C   0  0  0  0  0  0  0  0  0  0  0  0
    7.7518  -24.8154    1.7907 C   0  0  0  0  0  0  0  0  0  0  0  0
    8.3445  -25.8620    1.0528 C   0  0  0  0  0  0  0  0  0  0  0  0
    7.9554  -27.4455    2.7186 C   0  0  0  0  0  0  0  0  0  0  0  0
    8.0243  -28.8451    3.2686 C   0  0  0  0  0  0  0  0  0  0  0  0
    6.9650  -27.9600    5.2729 C   0  0  0  0  0  0  0  0  0  0  0  0
    7.3335  -26.3802    3.5866 C   0  0  0  0  0  0  0  0  0  0  0  0
    8.8780  -25.6074   -0.2174 C   0  0  0  0  0  0  0  0  0  0  0  0
    8.8389  -24.3280   -0.7954 C   0  0  0  0  0  0  0  0  0  0  0  0
    9.4506  -24.1165   -2.1519 C   0  0  0  0  0  0  0  0  0  0  0  0
    8.2343  -23.2831   -0.0826 C   0  0  0  0  0  0  0  0  0  0  0  0
    8.1309  -21.8735   -0.6025 C   0  0  0  0  0  0  0  0  0  0  0  0
    7.6992  -23.5456    1.1919 C   0  0  0  0  0  0  0  0  0  0  0  0
    6.7216  -22.2317    6.4613 C   0  0  0  0  0  0  0  0  0  0  0  0
    5.2917  -22.5666    6.1129 C   0  0  0  0  0  0  0  0  0  0  0  0
    4.7090  -23.7516    6.5791 C   0  0  0  0  0  0  0  0  0  0  0  0
    3.5048  -24.1954    6.0380 C   0  0  0  0  0  0  0  0  0  0  0  0
    2.8571  -23.4384    5.0635 C   0  0  0  0  0  0  0  0  0  0  0  0
    3.3785  -22.2080    4.6709 C   0  0  0  0  0  0  0  0  0  0  0  0
    4.5895  -21.7679    5.1993 C   0  0  0  0  0  0  0  0  0  0  0  0
    9.3258  -16.7628    8.7721 H   0  0  0  0  0  0  0  0  0  0  0  0
    7.5038  -29.8757    4.9435 H   0  0  0  0  0  0  0  0  0  0  0  0
  1 10  1  0  0  0  0
  1 13  1  0  0  0  0
  1 28  1  0  0  0  0
  2  4  1  0  0  0  0
  2  3  2  0  0  0  0
  2  6  1  0  0  0  0
  4  7  1  0  0  0  0
  5 15  1  0  0  0  0
  5 16  1  0  0  0  0
  5 21  1  0  0  0  0
  6 35  1  0  0  0  0
  7 10  1  0  0  0  0
  8 17  1  0  0  0  0
  9 20  2  0  0  0  0
 11 19  1  0  0  0  0
 11 20  1  0  0  0  0
 11 36  1  0  0  0  0
 12 19  2  0  0  0  0
 13 15  1  0  0  0  0
 14 20  1  0  0  0  0
 14 21  2  0  0  0  0
 16 17  2  0  0  0  0
 16 27  1  0  0  0  0
 17 22  1  0  0  0  0
 18  8  2  0  0  0  0
 18 19  1  0  0  0  0
 18 21  1  0  0  0  0
 22 23  2  0  0  0  0
 23 24  1  0  0  0  0
 23 25  1  0  0  0  0
 25 26  1  0  0  0  0
 25 27  2  0  0  0  0
 28 29  1  0  0  0  0
 29 30  2  0  0  0  0
 29 34  1  0  0  0  0
 30 31  1  0  0  0  0
 31 32  2  0  0  0  0
 32 33  1  0  0  0  0
 33 34  2  0  0  0  0
M  END
>  <CHROM.0>
-177.93560424,-173.95011195,-166.58035602,-160.29317723,-75.16276293,-64.97047883
96.62032228,-58.64589955,-178.69196705,-175.76123751,-82.02124358,-58.09366680
-62.89035537,-59.64116638,-59.25329906,-170.37894210,63.28885254,-178.34533333

>  <CHROM.1>
174.51470077,-166.83282161,158.61466122,-92.25460147,-2.58328718,-174.25653587
-79.08100137,-171.85890526,168.06632692,125.89634999,7.42438764,-23.78666162
3.93531209,1.51277058,1.05295545,0.53714314

>  <Name>


>  <RI>
3.63382e+07

>  <Rbt.Current_Directory>
/home/fstefaniak/gitlab/AnnapuRNA-publication/case_studies/6DN2/2YIE

>  <Rbt.Executable>
rbdock ($Id: //depot/dev/client3/rdock/2013.1/src/exe/rbdock.cxx#4 $)

>  <Rbt.Library>
libRbt.so (2013.1, Build901 2013/11/27)

>  <Rbt.Parameter_File>
/home/fstefaniak/progs/rDock//data/scripts/dock_solv.prm

>  <Rbt.Receptor>
system.prm

>  <SCORE>
-105.798

>  <SCORE.INTER>
-72.0848

>  <SCORE.INTER.CONST>
1

>  <SCORE.INTER.POLAR>
-6.61471

>  <SCORE.INTER.ROT>
9

>  <SCORE.INTER.SOLV>
20.5006

>  <SCORE.INTER.VDW>
-42.4411

>  <SCORE.INTER.norm>
-2.12014

>  <SCORE.INTRA>
-1.16511

>  <SCORE.INTRA.DIHEDRAL>
0.544991

>  <SCORE.INTRA.DIHEDRAL.0>
6.40188

>  <SCORE.INTRA.POLAR>
0

>  <SCORE.INTRA.POLAR.0>
0

>  <SCORE.INTRA.REPUL>
0

>  <SCORE.INTRA.REPUL.0>
0

>  <SCORE.INTRA.SOLV>
-1.04374

>  <SCORE.INTRA.SOLV.lig_0>
-26.6032

>  <SCORE.INTRA.VDW>
-0.915734

>  <SCORE.INTRA.VDW.0>
-0.660127

>  <SCORE.INTRA.norm>
-0.0342678

>  <SCORE.RESTR>
0

>  <SCORE.RESTR.CAVITY>
0

>  <SCORE.RESTR.norm>
0

>  <SCORE.SYSTEM>
-32.5479

>  <SCORE.SYSTEM.CONST>
0

>  <SCORE.SYSTEM.DIHEDRAL>
15.1849

>  <SCORE.SYSTEM.POLAR>
-6.80326

>  <SCORE.SYSTEM.SOLV>
-0.428895

>  <SCORE.SYSTEM.VDW>
-3.93972

>  <SCORE.SYSTEM.norm>
-0.957291

>  <SCORE.heavy>
34

>  <SCORE.norm>
-3.1117

$$$$
