ligands/ligand.pdb
  1228              3D

 84 85  0  0  0  0  0  0  0  0999 V2000
   -0.4212    0.7235   -2.6246 C   0  0  0  0  0  0  0  0  0  0  0  0
   -0.1994    1.7944   -2.5212 H   0  0  0  0  0  0  0  0  0  0  0  0
    0.6762    0.0215   -2.0126 O   0  0  0  0  0  0  0  0  0  0  0  0
    1.9032    0.0085   -2.7837 C   0  0  0  0  0  0  0  0  0  0  0  0
    2.5888   -0.6657   -2.2531 H   0  0  0  0  0  0  0  0  0  0  0  0
    2.5663    1.2888   -2.8710 O   0  0  0  0  0  0  0  0  0  0  0  0
    3.4558    1.4935   -1.7460 C   0  0  0  0  0  0  0  0  0  0  0  0
    3.8814    0.5209   -1.4756 H   0  0  0  0  0  0  0  0  0  0  0  0
    4.6915    2.3350   -2.1444 C   0  0  0  0  0  0  0  0  0  0  0  0
    4.4320    3.2987   -2.5923 H   0  0  0  0  0  0  0  0  0  0  0  0
    5.4493    2.5504   -0.7946 C   0  0  0  0  0  0  0  0  0  0  0  0
    5.2732    1.7514   -0.0720 H   0  0  0  0  0  0  0  0  0  0  0  0
    4.5007    3.6811   -0.1433 C   0  0  0  0  0  0  0  0  0  0  0  0
    3.9752    4.1456   -0.9884 H   0  0  0  0  0  0  0  0  0  0  0  0
    4.8552    4.9081    0.5279 N   0  0  0  0  0  0  0  0  0  0  0  0
    4.5801    5.2049    1.8524 C   0  0  0  0  0  0  0  0  0  0  0  0
    3.6892    5.9708    2.2351 O   0  0  0  0  0  0  0  0  0  0  0  0
    5.5884    4.5329    2.8016 C   0  0  0  0  0  0  0  0  0  0  0  0
    4.6639    3.9425    2.8863 H   0  0  0  0  0  0  0  0  0  0  0  0
    5.7747    3.8954    4.0669 O   0  0  0  0  0  0  0  0  0  0  0  0
    6.3447    5.8209    3.2047 C   0  0  0  0  0  0  0  0  0  0  0  0
    6.7214    6.8929    2.1486 C   0  0  0  0  0  0  0  0  0  0  0  0
    8.1604    7.0251    1.9783 N   0  0  0  0  0  0  0  0  0  0  0  0
    3.3390    2.9232    0.4948 C   0  0  0  0  0  0  0  0  0  0  0  0
    2.6184    2.0370   -0.5543 C   0  0  0  0  0  0  0  0  0  0  0  0
    1.7561    2.5844   -0.9592 H   0  0  0  0  0  0  0  0  0  0  0  0
    2.1632    0.8662    0.2149 N   0  0  0  0  0  0  0  0  0  0  0  0
    6.8669    2.4721   -0.9142 O   0  0  0  0  0  0  0  0  0  0  0  0
    7.4352    1.1591   -1.3923 C   0  0  0  0  0  0  0  0  0  0  0  0
    6.4896   -0.0903   -1.3786 C   0  0  0  0  0  0  0  0  0  0  0  0
    6.9607   -1.4770   -1.2157 N   0  0  0  0  0  0  0  0  0  0  0  0
    6.0752   -2.1839   -0.2556 C   0  0  0  0  0  0  0  0  0  0  0  0
    5.4172   -3.4711   -0.7651 C   0  0  0  0  0  0  0  0  0  0  0  0
    4.9152   -4.3282    0.4124 C   0  0  0  0  0  0  0  0  0  0  0  0
    6.0709   -4.7945    1.3052 C   0  0  0  0  0  0  0  0  0  0  0  0
    5.8221   -6.1032    1.8941 N   0  0  0  0  0  0  0  0  0  0  0  0
    5.4390    1.7215   -3.1818 O   0  0  0  0  0  0  0  0  0  0  0  0
    1.7156   -0.6709   -4.1623 C   0  0  0  0  0  0  0  0  0  0  0  0
    2.1474   -1.6791   -4.0892 H   0  0  0  0  0  0  0  0  0  0  0  0
    2.4323    0.0262   -5.2406 N   0  0  0  0  0  0  0  0  0  0  0  0
    0.2351   -0.8874   -4.5004 C   0  0  0  0  0  0  0  0  0  0  0  0
    0.1481   -1.0788   -5.5821 H   0  0  0  0  0  0  0  0  0  0  0  0
   -0.2390   -2.0623   -3.8193 O   0  0  0  0  0  0  0  0  0  0  0  0
   -0.6032    0.3137   -4.1055 C   0  0  0  0  0  0  0  0  0  0  0  0
   -1.6502    0.0549   -4.3023 H   0  0  0  0  0  0  0  0  0  0  0  0
   -0.2753    1.4282   -4.9388 O   0  0  0  0  0  0  0  0  0  0  0  0
   -1.7187    0.4144   -1.8244 C   0  0  0  0  0  0  0  0  0  0  0  0
   -2.7772    1.3869   -2.0972 N   0  0  0  0  0  0  0  0  0  0  0  0
    4.4419    5.6871    0.0054 H   0  0  0  0  0  0  0  0  0  0  0  0
    6.1431    3.0375    3.8708 H   0  0  0  0  0  0  0  0  0  0  0  0
    7.2886    5.5020    3.6721 H   0  0  0  0  0  0  0  0  0  0  0  0
    5.7934    6.3413    4.0106 H   0  0  0  0  0  0  0  0  0  0  0  0
    6.3151    7.8635    2.4830 H   0  0  0  0  0  0  0  0  0  0  0  0
    6.3063    6.7273    1.1599 H   0  0  0  0  0  0  0  0  0  0  0  0
    8.6107    7.1524    2.8821 H   0  0  0  0  0  0  0  0  0  0  0  0
    8.3554    7.8737    1.4507 H   0  0  0  0  0  0  0  0  0  0  0  0
    3.7095    2.3536    1.3652 H   0  0  0  0  0  0  0  0  0  0  0  0
    2.6045    3.6253    0.9214 H   0  0  0  0  0  0  0  0  0  0  0  0
    1.3843    0.4621   -0.3080 H   0  0  0  0  0  0  0  0  0  0  0  0
    1.7542    1.1409    1.0954 H   0  0  0  0  0  0  0  0  0  0  0  0
    7.7487    1.3632   -2.4220 H   0  0  0  0  0  0  0  0  0  0  0  0
    8.3589    0.9402   -0.8356 H   0  0  0  0  0  0  0  0  0  0  0  0
    5.9375   -0.1485   -2.3158 H   0  0  0  0  0  0  0  0  0  0  0  0
    5.7818    0.0883   -0.5853 H   0  0  0  0  0  0  0  0  0  0  0  0
    6.8872   -1.9506   -2.1228 H   0  0  0  0  0  0  0  0  0  0  0  0
    5.2434   -1.5637    0.1004 H   0  0  0  0  0  0  0  0  0  0  0  0
    6.6968   -2.3715    0.6202 H   0  0  0  0  0  0  0  0  0  0  0  0
    6.0946   -4.0605   -1.3929 H   0  0  0  0  0  0  0  0  0  0  0  0
    4.5452   -3.2176   -1.3863 H   0  0  0  0  0  0  0  0  0  0  0  0
    4.2034   -3.7435    1.0134 H   0  0  0  0  0  0  0  0  0  0  0  0
    4.3518   -5.1820    0.0141 H   0  0  0  0  0  0  0  0  0  0  0  0
    6.2142   -4.0737    2.1186 H   0  0  0  0  0  0  0  0  0  0  0  0
    7.0055   -4.8361    0.7352 H   0  0  0  0  0  0  0  0  0  0  0  0
    5.5625   -6.7640    1.1633 H   0  0  0  0  0  0  0  0  0  0  0  0
    6.6990   -6.4535    2.2805 H   0  0  0  0  0  0  0  0  0  0  0  0
    4.9491    1.8499   -4.0081 H   0  0  0  0  0  0  0  0  0  0  0  0
    2.6114   -0.6049   -6.0314 H   0  0  0  0  0  0  0  0  0  0  0  0
    1.8284    0.7688   -5.5940 H   0  0  0  0  0  0  0  0  0  0  0  0
    0.4894   -2.4547   -3.3091 H   0  0  0  0  0  0  0  0  0  0  0  0
    0.5843    1.7782   -4.6463 H   0  0  0  0  0  0  0  0  0  0  0  0
   -1.4953    0.4328   -0.7541 H   0  0  0  0  0  0  0  0  0  0  0  0
   -2.0824   -0.5864   -2.0791 H   0  0  0  0  0  0  0  0  0  0  0  0
   -3.0449    1.8488   -1.2331 H   0  0  0  0  0  0  0  0  0  0  0  0
   -2.4653    2.1314   -2.7178 H   0  0  0  0  0  0  0  0  0  0  0  0
  1  2  1  0  0  0  0
  3  1  1  0  0  0  0
  4  3  1  0  0  0  0
  4  5  1  0  0  0  0
  6  4  1  0  0  0  0
  7  6  1  0  0  0  0
  7  8  1  0  0  0  0
  9  7  1  0  0  0  0
  9 10  1  0  0  0  0
 11  9  1  0  0  0  0
 11 12  1  0  0  0  0
 13 11  1  0  0  0  0
 13 14  1  0  0  0  0
 15 13  1  0  0  0  0
 16 15  1  0  0  0  0
 17 16  2  0  0  0  0
 18 16  1  0  0  0  0
 18 19  1  0  0  0  0
 20 18  1  0  0  0  0
 21 18  1  0  0  0  0
 22 21  1  0  0  0  0
 23 22  1  0  0  0  0
 24 13  1  0  0  0  0
 25 24  1  0  0  0  0
 25 26  1  0  0  0  0
 25  7  1  0  0  0  0
 27 25  1  0  0  0  0
 28 11  1  0  0  0  0
 29 28  1  0  0  0  0
 30 29  1  0  0  0  0
 31 30  1  0  0  0  0
 32 31  1  0  0  0  0
 33 32  1  0  0  0  0
 34 33  1  0  0  0  0
 35 34  1  0  0  0  0
 36 35  1  0  0  0  0
 37  9  1  0  0  0  0
 38  4  1  0  0  0  0
 38 39  1  0  0  0  0
 40 38  1  0  0  0  0
 41 38  1  0  0  0  0
 41 42  1  0  0  0  0
 43 41  1  0  0  0  0
 44 41  1  0  0  0  0
 44 45  1  0  0  0  0
 44  1  1  0  0  0  0
 46 44  1  0  0  0  0
 47  1  1  0  0  0  0
 48 47  1  0  0  0  0
 15 49  1  0  0  0  0
 20 50  1  0  0  0  0
 21 51  1  0  0  0  0
 21 52  1  0  0  0  0
 22 53  1  0  0  0  0
 22 54  1  0  0  0  0
 23 55  1  0  0  0  0
 23 56  1  0  0  0  0
 24 57  1  0  0  0  0
 24 58  1  0  0  0  0
 27 59  1  0  0  0  0
 27 60  1  0  0  0  0
 29 61  1  0  0  0  0
 29 62  1  0  0  0  0
 30 63  1  0  0  0  0
 30 64  1  0  0  0  0
 31 65  1  0  0  0  0
 32 66  1  0  0  0  0
 32 67  1  0  0  0  0
 33 68  1  0  0  0  0
 33 69  1  0  0  0  0
 34 70  1  0  0  0  0
 34 71  1  0  0  0  0
 35 72  1  0  0  0  0
 35 73  1  0  0  0  0
 36 74  1  0  0  0  0
 36 75  1  0  0  0  0
 37 76  1  0  0  0  0
 40 77  1  0  0  0  0
 40 78  1  0  0  0  0
 43 79  1  0  0  0  0
 46 80  1  0  0  0  0
 47 81  1  0  0  0  0
 47 82  1  0  0  0  0
 48 83  1  0  0  0  0
 48 84  1  0  0  0  0
M  END
>  <energy>
280.70926652015117

$$$$
