ligand.pdb
  1228              3D

 24 23  0  0  0  0  0  0  0  0999 V2000
   -2.6949    1.1596   -0.0286 N   0  0  0  0  0  0  0  0  0  0  0  0
   -1.7097    0.1407   -0.3853 C   0  0  0  0  0  0  0  0  0  0  0  0
   -0.7921    0.3308    0.1820 H   0  0  0  0  0  0  0  0  0  0  0  0
   -1.3824    0.3023   -1.8550 C   0  0  0  0  0  0  0  0  0  0  0  0
   -2.0769    0.8584   -2.6932 O   0  0  0  0  0  0  0  0  0  0  0  0
   -0.1799   -0.2555   -2.1398 O   0  0  0  0  0  0  0  0  0  0  0  0
   -2.2568   -1.2650   -0.0974 C   0  0  0  0  0  0  0  0  0  0  0  0
   -2.0245   -1.7056    1.3550 C   0  0  0  0  0  0  0  0  0  0  0  0
   -3.0305   -1.0892    2.3289 C   0  0  0  0  0  0  0  0  0  0  0  0
   -2.5977   -1.2418    3.7835 C   0  0  0  0  0  0  0  0  0  0  0  0
   -3.0672   -2.5066    4.3310 N   0  0  0  0  0  0  0  0  0  0  0  0
   -3.3275    1.3474   -0.8041 H   0  0  0  0  0  0  0  0  0  0  0  0
   -2.2348    2.0409    0.1932 H   0  0  0  0  0  0  0  0  0  0  0  0
   -0.1249   -1.1926   -1.8558 H   0  0  0  0  0  0  0  0  0  0  0  0
   -1.7560   -1.9972   -0.7445 H   0  0  0  0  0  0  0  0  0  0  0  0
   -3.3228   -1.3304   -0.3546 H   0  0  0  0  0  0  0  0  0  0  0  0
   -0.9982   -1.4603    1.6500 H   0  0  0  0  0  0  0  0  0  0  0  0
   -2.1038   -2.7982    1.3994 H   0  0  0  0  0  0  0  0  0  0  0  0
   -4.0229   -1.5268    2.1621 H   0  0  0  0  0  0  0  0  0  0  0  0
   -3.1351   -0.0185    2.1386 H   0  0  0  0  0  0  0  0  0  0  0  0
   -1.5089   -1.1749    3.8819 H   0  0  0  0  0  0  0  0  0  0  0  0
   -3.0165   -0.4174    4.3703 H   0  0  0  0  0  0  0  0  0  0  0  0
   -3.2474   -2.3969    5.3282 H   0  0  0  0  0  0  0  0  0  0  0  0
   -2.3281   -3.2040    4.2539 H   0  0  0  0  0  0  0  0  0  0  0  0
  2  1  1  0  0  0  0
  2  3  1  0  0  0  0
  4  2  1  0  0  0  0
  5  4  2  0  0  0  0
  6  4  1  0  0  0  0
  7  2  1  0  0  0  0
  8  7  1  0  0  0  0
  9  8  1  0  0  0  0
 10  9  1  0  0  0  0
 11 10  1  0  0  0  0
  1 12  1  0  0  0  0
  1 13  1  0  0  0  0
  6 14  1  0  0  0  0
  7 15  1  0  0  0  0
  7 16  1  0  0  0  0
  8 17  1  0  0  0  0
  8 18  1  0  0  0  0
  9 19  1  0  0  0  0
  9 20  1  0  0  0  0
 10 21  1  0  0  0  0
 10 22  1  0  0  0  0
 11 23  1  0  0  0  0
 11 24  1  0  0  0  0
M  END
>  <energy>
14.688849979052598

$$$$
