2G9C_3AY_A_91
  1228              3D

 16 16  0  0  0  0  0  0  0  0999 V2000
   -2.4239   -1.3153    0.2978 N   0  0  0  0  0  0  0  0  0  0  0  0
   -1.1664   -0.7086    0.0952 C   0  0  0  0  0  0  0  0  0  0  0  0
   -1.1096    0.6568   -0.1425 C   0  0  0  0  0  0  0  0  0  0  0  0
    0.1442    1.2185   -0.3280 C   0  0  0  0  0  0  0  0  0  0  0  0
    1.2678    0.4656   -0.3165 N   0  0  0  0  0  0  0  0  0  0  0  0
    1.1442   -0.8481   -0.0273 C   0  0  0  0  0  0  0  0  0  0  0  0
   -0.0451   -1.4654    0.1435 N   0  0  0  0  0  0  0  0  0  0  0  0
    2.3151   -1.6300    0.0136 N   0  0  0  0  0  0  0  0  0  0  0  0
    0.2487    2.6005   -0.5988 N   0  0  0  0  0  0  0  0  0  0  0  0
   -3.1287   -0.9394   -0.3323 H   0  0  0  0  0  0  0  0  0  0  0  0
   -2.3547   -2.3243    0.1835 H   0  0  0  0  0  0  0  0  0  0  0  0
   -2.0090    1.2656   -0.1714 H   0  0  0  0  0  0  0  0  0  0  0  0
    3.1404   -1.0359   -0.0088 H   0  0  0  0  0  0  0  0  0  0  0  0
    2.3330   -2.2330    0.8330 H   0  0  0  0  0  0  0  0  0  0  0  0
    1.1508    2.9341   -0.2650 H   0  0  0  0  0  0  0  0  0  0  0  0
   -0.4947    3.1298   -0.1482 H   0  0  0  0  0  0  0  0  0  0  0  0
  2  1  1  0  0  0  0
  3  2  2  0  0  0  0
  4  3  1  0  0  0  0
  5  4  2  0  0  0  0
  6  5  1  0  0  0  0
  7  6  2  0  0  0  0
  7  2  1  0  0  0  0
  8  6  1  0  0  0  0
  9  4  1  0  0  0  0
  1 10  1  0  0  0  0
  1 11  1  0  0  0  0
  3 12  1  0  0  0  0
  8 13  1  0  0  0  0
  8 14  1  0  0  0  0
  9 15  1  0  0  0  0
  9 16  1  0  0  0  0
M  END
>  <energy>
36.609110579161268

$$$$
