4LX6_29H_A_601
  1228              3D

 17 18  0  0  0  0  0  0  0  0999 V2000
    1.8240   -0.2263   -0.0815 N   0  0  0  0  0  0  0  0  0  0  0  0
    2.8147   -0.4347   -0.1606 H   0  0  0  0  0  0  0  0  0  0  0  0
    0.9317   -1.2839   -0.1648 C   0  0  0  0  0  0  0  0  0  0  0  0
    1.2465   -2.4558   -0.3299 O   0  0  0  0  0  0  0  0  0  0  0  0
   -0.4745   -0.8744   -0.0490 C   0  0  0  0  0  0  0  0  0  0  0  0
   -1.5250   -1.7693   -0.0637 C   0  0  0  0  0  0  0  0  0  0  0  0
   -2.8127   -1.3876    0.0540 N   0  0  0  0  0  0  0  0  0  0  0  0
   -3.0063   -0.0623    0.2043 C   0  0  0  0  0  0  0  0  0  0  0  0
   -2.0595    0.8964    0.2437 N   0  0  0  0  0  0  0  0  0  0  0  0
   -0.7860    0.4646    0.1218 C   0  0  0  0  0  0  0  0  0  0  0  0
    0.1997    1.4625    0.1829 N   0  0  0  0  0  0  0  0  0  0  0  0
    1.4490    1.1052    0.0799 C   0  0  0  0  0  0  0  0  0  0  0  0
    2.4799    2.0203    0.1140 N   0  0  0  0  0  0  0  0  0  0  0  0
   -1.3710   -2.8358   -0.1873 H   0  0  0  0  0  0  0  0  0  0  0  0
   -4.0334    0.2685    0.3057 H   0  0  0  0  0  0  0  0  0  0  0  0
    2.3275    2.8327   -0.4826 H   0  0  0  0  0  0  0  0  0  0  0  0
    3.3890    1.6236   -0.1133 H   0  0  0  0  0  0  0  0  0  0  0  0
  1  2  1  0  0  0  0
  3  1  1  0  0  0  0
  4  3  2  0  0  0  0
  5  3  1  0  0  0  0
  6  5  2  0  0  0  0
  7  6  1  0  0  0  0
  8  7  2  0  0  0  0
  9  8  1  0  0  0  0
 10  9  2  0  0  0  0
 10  5  1  0  0  0  0
 11 10  1  0  0  0  0
 12 11  2  0  0  0  0
 12  1  1  0  0  0  0
 13 12  1  0  0  0  0
  6 14  1  0  0  0  0
  8 15  1  0  0  0  0
 13 16  1  0  0  0  0
 13 17  1  0  0  0  0
M  END
>  <energy>
33.319572729198896

$$$$
