ligands/ligand.pdb
  1228              3D

 87 90  0  0  0  0  0  0  0  0999 V2000
    0.3092    2.8968   -0.2649 C   0  0  0  0  0  0  0  0  0  0  0  0
    1.3395    3.1718   -0.0308 H   0  0  0  0  0  0  0  0  0  0  0  0
   -0.3887    2.4968    0.9215 O   0  0  0  0  0  0  0  0  0  0  0  0
    0.3873    2.2774    2.1203 C   0  0  0  0  0  0  0  0  0  0  0  0
   -0.3011    1.7343    2.7779 H   0  0  0  0  0  0  0  0  0  0  0  0
    1.6290    1.3545    1.9407 C   0  0  0  0  0  0  0  0  0  0  0  0
    2.2062    1.6490    1.0626 H   0  0  0  0  0  0  0  0  0  0  0  0
    2.5715    1.3871    3.1584 C   0  0  0  0  0  0  0  0  0  0  0  0
    2.1520    0.8008    3.9798 H   0  0  0  0  0  0  0  0  0  0  0  0
    2.8856    2.8154    3.5949 C   0  0  0  0  0  0  0  0  0  0  0  0
    3.3523    3.3614    2.7705 H   0  0  0  0  0  0  0  0  0  0  0  0
    3.8238    2.8142    4.7126 N   0  0  0  0  0  0  0  0  0  0  0  0
    1.5947    3.5051    4.0091 C   0  0  0  0  0  0  0  0  0  0  0  0
    0.6524    3.6454    2.8053 C   0  0  0  0  0  0  0  0  0  0  0  0
    1.1048    4.3390    2.0889 H   0  0  0  0  0  0  0  0  0  0  0  0
   -0.5923    4.2570    3.2828 N   0  0  0  0  0  0  0  0  0  0  0  0
    3.7998    0.7498    2.7934 O   0  0  0  0  0  0  0  0  0  0  0  0
    1.1606   -0.0009    1.7939 O   0  0  0  0  0  0  0  0  0  0  0  0
    1.5812   -0.6902    0.6138 C   0  0  0  0  0  0  0  0  0  0  0  0
    1.7912    0.0085   -0.2027 H   0  0  0  0  0  0  0  0  0  0  0  0
    2.7832   -1.6147    0.8813 C   0  0  0  0  0  0  0  0  0  0  0  0
    3.3343   -1.3802    1.7938 H   0  0  0  0  0  0  0  0  0  0  0  0
    3.6747   -1.5305   -0.2282 O   0  0  0  0  0  0  0  0  0  0  0  0
    2.1715   -3.0064    0.9520 C   0  0  0  0  0  0  0  0  0  0  0  0
    1.7483   -3.1933    1.9483 H   0  0  0  0  0  0  0  0  0  0  0  0
    2.9981   -4.0896    0.5606 O   0  0  0  0  0  0  0  0  0  0  0  0
    4.2283   -4.3033    1.2679 C   0  0  0  0  0  0  0  0  0  0  0  0
    4.9883   -3.6799    0.7810 H   0  0  0  0  0  0  0  0  0  0  0  0
    4.1748   -3.9052    2.6452 O   0  0  0  0  0  0  0  0  0  0  0  0
    4.8523   -4.7865    3.5478 C   0  0  0  0  0  0  0  0  0  0  0  0
    5.8852   -4.9011    3.1957 H   0  0  0  0  0  0  0  0  0  0  0  0
    4.1341   -6.1441    3.5428 C   0  0  0  0  0  0  0  0  0  0  0  0
    4.6928   -6.8738    4.1388 H   0  0  0  0  0  0  0  0  0  0  0  0
    3.8949   -6.6557    2.1155 C   0  0  0  0  0  0  0  0  0  0  0  0
    2.8220   -6.6841    1.8911 H   0  0  0  0  0  0  0  0  0  0  0  0
    4.6302   -5.7922    1.0777 C   0  0  0  0  0  0  0  0  0  0  0  0
    5.7117   -5.8981    1.2335 H   0  0  0  0  0  0  0  0  0  0  0  0
    4.3311   -6.2675   -0.2754 N   0  0  0  0  0  0  0  0  0  0  0  0
    4.3450   -8.0085    2.0373 O   0  0  0  0  0  0  0  0  0  0  0  0
    2.8517   -6.0184    4.1716 O   0  0  0  0  0  0  0  0  0  0  0  0
    4.9111   -4.1119    4.9261 C   0  0  0  0  0  0  0  0  0  0  0  0
    5.7893   -4.8108    5.8600 N   0  0  0  0  0  0  0  0  0  0  0  0
    1.0515   -2.8652   -0.0766 C   0  0  0  0  0  0  0  0  0  0  0  0
    1.4616   -2.8572   -1.0989 H   0  0  0  0  0  0  0  0  0  0  0  0
    0.5088   -1.5539    0.1643 O   0  0  0  0  0  0  0  0  0  0  0  0
   -0.0592   -3.9161   -0.0440 C   0  0  0  0  0  0  0  0  0  0  0  0
    0.1827   -4.9452    0.9058 O   0  0  0  0  0  0  0  0  0  0  0  0
   -0.3355    4.1177   -0.9722 C   0  0  0  0  0  0  0  0  0  0  0  0
    0.3185    4.3995   -1.8105 H   0  0  0  0  0  0  0  0  0  0  0  0
   -0.4308    5.2783   -0.0878 N   0  0  0  0  0  0  0  0  0  0  0  0
   -1.7049    3.7887   -1.5742 C   0  0  0  0  0  0  0  0  0  0  0  0
   -2.4620    3.6603   -0.7872 H   0  0  0  0  0  0  0  0  0  0  0  0
   -2.1319    4.8529   -2.4268 O   0  0  0  0  0  0  0  0  0  0  0  0
   -1.6131    2.5180   -2.4237 C   0  0  0  0  0  0  0  0  0  0  0  0
   -1.0493    2.7240   -3.3426 H   0  0  0  0  0  0  0  0  0  0  0  0
   -2.9339    2.1408   -2.8181 O   0  0  0  0  0  0  0  0  0  0  0  0
   -0.9499    1.3858   -1.6310 C   0  0  0  0  0  0  0  0  0  0  0  0
   -1.5501    1.1623   -0.7424 H   0  0  0  0  0  0  0  0  0  0  0  0
    0.3567    1.8269   -1.2253 O   0  0  0  0  0  0  0  0  0  0  0  0
   -0.8489    0.0826   -2.4361 C   0  0  0  0  0  0  0  0  0  0  0  0
    0.4692   -0.1394   -2.9110 O   0  0  0  0  0  0  0  0  0  0  0  0
    4.6699    2.3193    4.4350 H   0  0  0  0  0  0  0  0  0  0  0  0
    4.1284    3.7716    4.8968 H   0  0  0  0  0  0  0  0  0  0  0  0
    1.8061    4.4956    4.4383 H   0  0  0  0  0  0  0  0  0  0  0  0
    1.0943    2.9304    4.8024 H   0  0  0  0  0  0  0  0  0  0  0  0
   -0.8711    3.8323    4.1678 H   0  0  0  0  0  0  0  0  0  0  0  0
   -1.3549    4.0610    2.6343 H   0  0  0  0  0  0  0  0  0  0  0  0
    4.1747    1.2379    2.0396 H   0  0  0  0  0  0  0  0  0  0  0  0
    4.1874   -0.7110   -0.1233 H   0  0  0  0  0  0  0  0  0  0  0  0
    4.6301   -7.2384   -0.3599 H   0  0  0  0  0  0  0  0  0  0  0  0
    4.8863   -5.7442   -0.9507 H   0  0  0  0  0  0  0  0  0  0  0  0
    5.3145   -8.0107    2.1061 H   0  0  0  0  0  0  0  0  0  0  0  0
    2.3849   -5.2800    3.7427 H   0  0  0  0  0  0  0  0  0  0  0  0
    3.9098   -4.0173    5.3592 H   0  0  0  0  0  0  0  0  0  0  0  0
    5.2994   -3.0931    4.8068 H   0  0  0  0  0  0  0  0  0  0  0  0
    5.3097   -4.9317    6.7516 H   0  0  0  0  0  0  0  0  0  0  0  0
    6.0001   -5.7516    5.5295 H   0  0  0  0  0  0  0  0  0  0  0  0
   -1.0300   -3.4608    0.1880 H   0  0  0  0  0  0  0  0  0  0  0  0
   -0.1581   -4.3894   -1.0286 H   0  0  0  0  0  0  0  0  0  0  0  0
    0.8808   -5.5169    0.5414 H   0  0  0  0  0  0  0  0  0  0  0  0
    0.4989    5.6356    0.1025 H   0  0  0  0  0  0  0  0  0  0  0  0
   -0.8122    4.9814    0.8071 H   0  0  0  0  0  0  0  0  0  0  0  0
   -2.4727    5.5691   -1.8629 H   0  0  0  0  0  0  0  0  0  0  0  0
   -3.4532    2.0097   -2.0058 H   0  0  0  0  0  0  0  0  0  0  0  0
   -1.5329    0.0745   -3.2942 H   0  0  0  0  0  0  0  0  0  0  0  0
   -1.1288   -0.7642   -1.8027 H   0  0  0  0  0  0  0  0  0  0  0  0
    0.3989   -0.5572   -3.7859 H   0  0  0  0  0  0  0  0  0  0  0  0
  1  2  1  0  0  0  0
  3  1  1  0  0  0  0
  4  3  1  0  0  0  0
  4  5  1  0  0  0  0
  6  4  1  0  0  0  0
  6  7  1  0  0  0  0
  8  6  1  0  0  0  0
  8  9  1  0  0  0  0
 10  8  1  0  0  0  0
 10 11  1  0  0  0  0
 12 10  1  0  0  0  0
 13 10  1  0  0  0  0
 14 13  1  0  0  0  0
 14 15  1  0  0  0  0
 14  4  1  0  0  0  0
 16 14  1  0  0  0  0
 17  8  1  0  0  0  0
 18  6  1  0  0  0  0
 19 18  1  0  0  0  0
 19 20  1  0  0  0  0
 21 19  1  0  0  0  0
 21 22  1  0  0  0  0
 23 21  1  0  0  0  0
 24 21  1  0  0  0  0
 24 25  1  0  0  0  0
 26 24  1  0  0  0  0
 27 26  1  0  0  0  0
 27 28  1  0  0  0  0
 29 27  1  0  0  0  0
 30 29  1  0  0  0  0
 30 31  1  0  0  0  0
 32 30  1  0  0  0  0
 32 33  1  0  0  0  0
 34 32  1  0  0  0  0
 34 35  1  0  0  0  0
 36 34  1  0  0  0  0
 36 37  1  0  0  0  0
 36 27  1  0  0  0  0
 38 36  1  0  0  0  0
 39 34  1  0  0  0  0
 40 32  1  0  0  0  0
 41 30  1  0  0  0  0
 42 41  1  0  0  0  0
 43 24  1  0  0  0  0
 43 44  1  0  0  0  0
 45 43  1  0  0  0  0
 45 19  1  0  0  0  0
 46 43  1  0  0  0  0
 47 46  1  0  0  0  0
 48  1  1  0  0  0  0
 48 49  1  0  0  0  0
 50 48  1  0  0  0  0
 51 48  1  0  0  0  0
 51 52  1  0  0  0  0
 53 51  1  0  0  0  0
 54 51  1  0  0  0  0
 54 55  1  0  0  0  0
 56 54  1  0  0  0  0
 57 54  1  0  0  0  0
 57 58  1  0  0  0  0
 59 57  1  0  0  0  0
 59  1  1  0  0  0  0
 60 57  1  0  0  0  0
 61 60  1  0  0  0  0
 12 62  1  0  0  0  0
 12 63  1  0  0  0  0
 13 64  1  0  0  0  0
 13 65  1  0  0  0  0
 16 66  1  0  0  0  0
 16 67  1  0  0  0  0
 17 68  1  0  0  0  0
 23 69  1  0  0  0  0
 38 70  1  0  0  0  0
 38 71  1  0  0  0  0
 39 72  1  0  0  0  0
 40 73  1  0  0  0  0
 41 74  1  0  0  0  0
 41 75  1  0  0  0  0
 42 76  1  0  0  0  0
 42 77  1  0  0  0  0
 46 78  1  0  0  0  0
 46 79  1  0  0  0  0
 47 80  1  0  0  0  0
 50 81  1  0  0  0  0
 50 82  1  0  0  0  0
 53 83  1  0  0  0  0
 56 84  1  0  0  0  0
 60 85  1  0  0  0  0
 60 86  1  0  0  0  0
 61 87  1  0  0  0  0
M  END
>  <energy>
137.31221462644808

$$$$
