ligand
  1228              3D

 23 24  0  0  0  0  0  0  0  0999 V2000
   -3.3958    1.3452    0.5070 N   0  0  0  0  0  0  0  0  0  0  0  0
   -2.6665    0.3356   -0.0764 C   0  0  0  0  0  0  0  0  0  0  0  0
   -2.0614    0.4390   -1.2410 N   0  0  0  0  0  0  0  0  0  0  0  0
   -0.7849   -0.0665   -1.1447 C   0  0  0  0  0  0  0  0  0  0  0  0
   -0.5697   -1.0477   -0.2319 C   0  0  0  0  0  0  0  0  0  0  0  0
   -1.6955   -1.5867    0.4898 C   0  0  0  0  0  0  0  0  0  0  0  0
   -1.5177   -2.6473    0.9670 O   0  0  0  0  0  0  0  0  0  0  0  0
   -2.6918   -0.9528    0.4911 N   0  0  0  0  0  0  0  0  0  0  0  0
    0.7082   -1.2665    0.2700 N   0  0  0  0  0  0  0  0  0  0  0  0
    1.4810   -0.0092    0.4486 C   0  0  0  0  0  0  0  0  0  0  0  0
    0.9414    0.6125    1.1814 H   0  0  0  0  0  0  0  0  0  0  0  0
    1.5313    0.7667   -0.8931 C   0  0  0  0  0  0  0  0  0  0  0  0
    0.3571    0.4947   -1.7246 N   0  0  0  0  0  0  0  0  0  0  0  0
    2.8732   -0.2819    1.0061 C   0  0  0  0  0  0  0  0  0  0  0  0
   -3.9523    1.0529    1.3112 H   0  0  0  0  0  0  0  0  0  0  0  0
   -2.8149    2.1253    0.8222 H   0  0  0  0  0  0  0  0  0  0  0  0
    1.2196   -1.9269   -0.3162 H   0  0  0  0  0  0  0  0  0  0  0  0
    1.5840    1.8437   -0.6911 H   0  0  0  0  0  0  0  0  0  0  0  0
    2.4308    0.5047   -1.4599 H   0  0  0  0  0  0  0  0  0  0  0  0
    0.1257    1.2594   -2.3547 H   0  0  0  0  0  0  0  0  0  0  0  0
    3.5790    0.4995    0.6896 H   0  0  0  0  0  0  0  0  0  0  0  0
    2.8390   -0.2625    2.1030 H   0  0  0  0  0  0  0  0  0  0  0  0
    3.2752   -1.2503    0.6854 H   0  0  0  0  0  0  0  0  0  0  0  0
  2  1  1  0  0  0  0
  3  2  2  0  0  0  0
  4  3  1  0  0  0  0
  5  4  2  0  0  0  0
  6  5  1  0  0  0  0
  7  6  2  0  0  0  0
  8  6  2  0  0  0  0
  8  2  1  0  0  0  0
  9  5  1  0  0  0  0
 10  9  1  0  0  0  0
 10 11  1  0  0  0  0
 12 10  1  0  0  0  0
 13 12  1  0  0  0  0
 13  4  1  0  0  0  0
 14 10  1  0  0  0  0
  1 15  1  0  0  0  0
  1 16  1  0  0  0  0
  9 17  1  0  0  0  0
 12 18  1  0  0  0  0
 12 19  1  0  0  0  0
 13 20  1  0  0  0  0
 14 21  1  0  0  0  0
 14 22  1  0  0  0  0
 14 23  1  0  0  0  0
M  END
>  <energy>
201.11692135545616

$$$$
