ligand.pdb
  1228              3D

 42 42  0  0  0  0  0  0  0  0999 V2000
    1.6763   -2.2434    1.1712 C   0  0  0  0  0  0  0  0  0  0  0  0
    0.5722   -2.6976    1.4516 O   0  0  0  0  0  0  0  0  0  0  0  0
    2.8084   -2.4512    1.9422 N   0  0  0  0  0  0  0  0  0  0  0  0
    3.8352   -2.4705    1.3639 C   0  0  0  0  0  0  0  0  0  0  0  0
    4.5731   -3.3818    1.2800 O   0  0  0  0  0  0  0  0  0  0  0  0
    4.2171   -1.3327    0.7398 N   0  0  0  0  0  0  0  0  0  0  0  0
    3.3020   -0.7085    0.0609 C   0  0  0  0  0  0  0  0  0  0  0  0
    3.6374    0.5510   -0.6860 C   0  0  0  0  0  0  0  0  0  0  0  0
    1.8722   -1.2374    0.0282 C   0  0  0  0  0  0  0  0  0  0  0  0
    1.2323   -0.3831    0.2855 H   0  0  0  0  0  0  0  0  0  0  0  0
    1.5088   -1.7194   -1.3908 C   0  0  0  0  0  0  0  0  0  0  0  0
    1.2869   -3.2170   -1.6150 C   0  0  0  0  0  0  0  0  0  0  0  0
   -0.0780   -3.7477   -1.1987 C   0  0  0  0  0  0  0  0  0  0  0  0
   -0.1853   -4.7637   -0.5132 O   0  0  0  0  0  0  0  0  0  0  0  0
   -1.1376   -3.0262   -1.7204 N   0  0  0  0  0  0  0  0  0  0  0  0
   -2.5147   -3.1754   -1.2551 C   0  0  0  0  0  0  0  0  0  0  0  0
   -2.5707   -4.1546   -0.7647 H   0  0  0  0  0  0  0  0  0  0  0  0
   -3.4705   -3.2562   -2.4500 C   0  0  0  0  0  0  0  0  0  0  0  0
   -3.3283   -2.1222   -3.2922 O   0  0  0  0  0  0  0  0  0  0  0  0
   -2.9599   -2.1282   -0.2131 C   0  0  0  0  0  0  0  0  0  0  0  0
   -1.9761   -0.5941   -0.1095 S   0  0  0  0  0  0  0  0  0  0  0  0
   -2.9771    0.5065   -1.1434 C   0  0  0  0  0  0  0  0  0  0  0  0
   -2.4259    2.2268   -0.9479 S   0  0  0  0  0  0  0  0  0  0  0  0
   -3.5630    3.0135   -2.1131 C   0  0  0  0  0  0  0  0  0  0  0  0
    4.0732    0.2863   -1.6528 H   0  0  0  0  0  0  0  0  0  0  0  0
    4.3489    1.1521   -0.1131 H   0  0  0  0  0  0  0  0  0  0  0  0
    2.7348    1.1435   -0.8571 H   0  0  0  0  0  0  0  0  0  0  0  0
    2.2945   -1.4142   -2.0938 H   0  0  0  0  0  0  0  0  0  0  0  0
    0.6344   -1.1559   -1.7299 H   0  0  0  0  0  0  0  0  0  0  0  0
    1.4042   -3.4455   -2.6829 H   0  0  0  0  0  0  0  0  0  0  0  0
    2.0580   -3.7930   -1.0912 H   0  0  0  0  0  0  0  0  0  0  0  0
   -0.9947   -2.5229   -2.5911 H   0  0  0  0  0  0  0  0  0  0  0  0
   -4.5124   -3.3063   -2.1206 H   0  0  0  0  0  0  0  0  0  0  0  0
   -3.2704   -4.1623   -3.0347 H   0  0  0  0  0  0  0  0  0  0  0  0
   -3.2363   -2.4461   -4.2041 H   0  0  0  0  0  0  0  0  0  0  0  0
   -4.0145   -1.8645   -0.3493 H   0  0  0  0  0  0  0  0  0  0  0  0
   -2.8968   -2.5870    0.7809 H   0  0  0  0  0  0  0  0  0  0  0  0
   -4.0286    0.4342   -0.8526 H   0  0  0  0  0  0  0  0  0  0  0  0
   -2.8740    0.2180   -2.1929 H   0  0  0  0  0  0  0  0  0  0  0  0
   -4.5955    2.7356   -1.8874 H   0  0  0  0  0  0  0  0  0  0  0  0
   -3.4692    4.0998   -2.0354 H   0  0  0  0  0  0  0  0  0  0  0  0
   -3.3245    2.7126   -3.1364 H   0  0  0  0  0  0  0  0  0  0  0  0
  2  1  2  0  0  0  0
  3  1  1  0  0  0  0
  4  3  2  0  0  0  0
  5  4  2  0  0  0  0
  6  4  1  0  0  0  0
  7  6  2  0  0  0  0
  8  7  1  0  0  0  0
  9  7  1  0  0  0  0
  9 10  1  0  0  0  0
  9  1  1  0  0  0  0
 11  9  1  0  0  0  0
 12 11  1  0  0  0  0
 13 12  1  0  0  0  0
 14 13  2  0  0  0  0
 15 13  1  0  0  0  0
 16 15  1  0  0  0  0
 16 17  1  0  0  0  0
 18 16  1  0  0  0  0
 19 18  1  0  0  0  0
 20 16  1  0  0  0  0
 21 20  1  0  0  0  0
 22 21  1  0  0  0  0
 23 22  1  0  0  0  0
 24 23  1  0  0  0  0
  8 25  1  0  0  0  0
  8 26  1  0  0  0  0
  8 27  1  0  0  0  0
 11 28  1  0  0  0  0
 11 29  1  0  0  0  0
 12 30  1  0  0  0  0
 12 31  1  0  0  0  0
 15 32  1  0  0  0  0
 18 33  1  0  0  0  0
 18 34  1  0  0  0  0
 19 35  1  0  0  0  0
 20 36  1  0  0  0  0
 20 37  1  0  0  0  0
 22 38  1  0  0  0  0
 22 39  1  0  0  0  0
 24 40  1  0  0  0  0
 24 41  1  0  0  0  0
 24 42  1  0  0  0  0
M  END
>  <energy>
183.10888357021773

$$$$
