ligands/ligand.pdb
  1228              3D

 70 72  0  0  0  0  0  0  0  0999 V2000
   -8.3743    1.6841    6.1048 C   0  0  0  0  0  0  0  0  0  0  0  0
   -8.5754    1.9707    5.0660 H   0  0  0  0  0  0  0  0  0  0  0  0
   -6.9598    1.7690    6.3445 O   0  0  0  0  0  0  0  0  0  0  0  0
   -6.1920    1.1529    5.2850 C   0  0  0  0  0  0  0  0  0  0  0  0
   -5.2217    0.8563    5.7009 H   0  0  0  0  0  0  0  0  0  0  0  0
   -5.9872    2.1133    4.2618 O   0  0  0  0  0  0  0  0  0  0  0  0
   -4.6953    2.7453    4.1303 C   0  0  0  0  0  0  0  0  0  0  0  0
   -4.1215    2.1378    3.4128 H   0  0  0  0  0  0  0  0  0  0  0  0
   -3.8574    3.0089    5.4033 C   0  0  0  0  0  0  0  0  0  0  0  0
   -4.0390    2.2459    6.1547 H   0  0  0  0  0  0  0  0  0  0  0  0
   -4.1979    4.3546    6.0784 C   0  0  0  0  0  0  0  0  0  0  0  0
   -5.7219    4.6440    5.9664 C   0  0  0  0  0  0  0  0  0  0  0  0
   -6.4460    5.4634    5.9757 H   0  0  0  0  0  0  0  0  0  0  0  0
   -5.8375    5.2377    7.3404 N   0  0  0  0  0  0  0  0  0  0  0  0
   -5.7962    5.0536    4.3773 C   0  0  0  0  0  0  0  0  0  0  0  0
   -5.3737    6.0659    4.2946 H   0  0  0  0  0  0  0  0  0  0  0  0
   -4.9912    4.1136    3.4412 C   0  0  0  0  0  0  0  0  0  0  0  0
   -5.4694    3.9550    2.4839 H   0  0  0  0  0  0  0  0  0  0  0  0
   -3.7478    4.7406    3.1073 O   0  0  0  0  0  0  0  0  0  0  0  0
   -7.2009    5.2365    4.0371 O   0  0  0  0  0  0  0  0  0  0  0  0
   -7.8436    4.4874    2.9983 C   0  0  0  0  0  0  0  0  0  0  0  0
   -7.3689    3.5132    2.8812 H   0  0  0  0  0  0  0  0  0  0  0  0
   -7.8160    5.2873    1.6918 C   0  0  0  0  0  0  0  0  0  0  0  0
   -6.7902    5.5826    1.4357 H   0  0  0  0  0  0  0  0  0  0  0  0
   -8.4840    4.5157    0.5194 C   0  0  0  0  0  0  0  0  0  0  0  0
   -9.1430    5.2405    0.0226 H   0  0  0  0  0  0  0  0  0  0  0  0
   -9.4221    3.3786    1.0270 C   0  0  0  0  0  0  0  0  0  0  0  0
  -10.1070    3.8748    2.3139 C   0  0  0  0  0  0  0  0  0  0  0  0
   -9.1979    4.1927    3.3775 O   0  0  0  0  0  0  0  0  0  0  0  0
   -8.7125    2.1735    1.3445 O   0  0  0  0  0  0  0  0  0  0  0  0
  -10.4667    3.0146   -0.0360 C   0  0  0  0  0  0  0  0  0  0  0  0
   -7.5683    4.1112   -0.5488 N   0  0  0  0  0  0  0  0  0  0  0  0
   -6.3980    3.3313   -0.2067 C   0  0  0  0  0  0  0  0  0  0  0  0
   -8.5347    6.5159    1.8991 O   0  0  0  0  0  0  0  0  0  0  0  0
   -2.4268    2.9286    5.0992 N   0  0  0  0  0  0  0  0  0  0  0  0
   -6.7712   -0.2064    4.7495 C   0  0  0  0  0  0  0  0  0  0  0  0
   -6.1835   -0.9911    5.2473 H   0  0  0  0  0  0  0  0  0  0  0  0
   -6.6035   -0.3771    3.3019 N   0  0  0  0  0  0  0  0  0  0  0  0
   -8.2279   -0.5172    5.1086 C   0  0  0  0  0  0  0  0  0  0  0  0
   -8.6903    0.2153    6.3442 C   0  0  0  0  0  0  0  0  0  0  0  0
   -9.2016    2.5857    7.0305 C   0  0  0  0  0  0  0  0  0  0  0  0
   -9.1646    4.0027    6.6572 N   0  0  0  0  0  0  0  0  0  0  0  0
   -3.5941    5.1811    5.6757 H   0  0  0  0  0  0  0  0  0  0  0  0
   -3.8320    4.2398    7.1150 H   0  0  0  0  0  0  0  0  0  0  0  0
   -5.8580    4.4931    8.0535 H   0  0  0  0  0  0  0  0  0  0  0  0
   -5.0807    5.8694    7.5663 H   0  0  0  0  0  0  0  0  0  0  0  0
   -3.9475    5.4836    2.5076 H   0  0  0  0  0  0  0  0  0  0  0  0
  -10.6905    4.7786    2.1082 H   0  0  0  0  0  0  0  0  0  0  0  0
  -10.8146    3.1259    2.6927 H   0  0  0  0  0  0  0  0  0  0  0  0
   -9.3413    1.5625    1.7542 H   0  0  0  0  0  0  0  0  0  0  0  0
  -11.0603    3.8835   -0.3284 H   0  0  0  0  0  0  0  0  0  0  0  0
  -11.1481    2.2448    0.3384 H   0  0  0  0  0  0  0  0  0  0  0  0
   -9.9783    2.6124   -0.9349 H   0  0  0  0  0  0  0  0  0  0  0  0
   -7.3007    4.9264   -1.1043 H   0  0  0  0  0  0  0  0  0  0  0  0
   -6.4195    2.8664    0.7828 H   0  0  0  0  0  0  0  0  0  0  0  0
   -5.4849    3.9328   -0.2841 H   0  0  0  0  0  0  0  0  0  0  0  0
   -6.3170    2.5189   -0.9371 H   0  0  0  0  0  0  0  0  0  0  0  0
   -8.1613    7.1813    1.3032 H   0  0  0  0  0  0  0  0  0  0  0  0
   -2.1209    1.9569    5.2218 H   0  0  0  0  0  0  0  0  0  0  0  0
   -1.8886    3.4674    5.7756 H   0  0  0  0  0  0  0  0  0  0  0  0
   -6.5540   -1.3661    3.0786 H   0  0  0  0  0  0  0  0  0  0  0  0
   -5.7246    0.0384    2.9797 H   0  0  0  0  0  0  0  0  0  0  0  0
   -8.8956   -0.2716    4.2835 H   0  0  0  0  0  0  0  0  0  0  0  0
   -8.3229   -1.5882    5.2937 H   0  0  0  0  0  0  0  0  0  0  0  0
   -8.1662   -0.1550    7.2372 H   0  0  0  0  0  0  0  0  0  0  0  0
   -9.7589    0.0327    6.5062 H   0  0  0  0  0  0  0  0  0  0  0  0
   -8.8904    2.4755    8.0761 H   0  0  0  0  0  0  0  0  0  0  0  0
  -10.2532    2.2778    6.9714 H   0  0  0  0  0  0  0  0  0  0  0  0
   -9.8356    4.5128    7.2444 H   0  0  0  0  0  0  0  0  0  0  0  0
   -9.5040    4.1233    5.7026 H   0  0  0  0  0  0  0  0  0  0  0  0
  1  2  1  0  0  0  0
  1  3  1  0  0  0  0
  1 40  1  0  0  0  0
  1 41  1  0  0  0  0
  3  4  1  0  0  0  0
  4  5  1  0  0  0  0
  4  6  1  0  0  0  0
  4 36  1  0  0  0  0
  7 17  1  0  0  0  0
  7  8  1  0  0  0  0
  7  6  1  0  0  0  0
  9  7  1  0  0  0  0
  9 10  1  0  0  0  0
  9 11  1  0  0  0  0
  9 35  1  0  0  0  0
 11 12  1  0  0  0  0
 11 43  1  0  0  0  0
 11 44  1  0  0  0  0
 12 15  1  0  0  0  0
 12 14  1  0  0  0  0
 12 13  1  0  0  0  0
 14 45  1  0  0  0  0
 14 46  1  0  0  0  0
 15 16  1  0  0  0  0
 15 17  1  0  0  0  0
 15 20  1  0  0  0  0
 17 19  1  0  0  0  0
 17 18  1  0  0  0  0
 19 47  1  0  0  0  0
 21 23  1  0  0  0  0
 21 29  1  0  0  0  0
 21 22  1  0  0  0  0
 21 20  1  0  0  0  0
 23 25  1  0  0  0  0
 23 34  1  0  0  0  0
 23 24  1  0  0  0  0
 25 27  1  0  0  0  0
 25 32  1  0  0  0  0
 25 26  1  0  0  0  0
 27 28  1  0  0  0  0
 27 30  1  0  0  0  0
 27 31  1  0  0  0  0
 28 29  1  0  0  0  0
 28 48  1  0  0  0  0
 28 49  1  0  0  0  0
 30 50  1  0  0  0  0
 31 51  1  0  0  0  0
 31 52  1  0  0  0  0
 31 53  1  0  0  0  0
 32 33  1  0  0  0  0
 32 54  1  0  0  0  0
 33 55  1  0  0  0  0
 33 56  1  0  0  0  0
 33 57  1  0  0  0  0
 34 58  1  0  0  0  0
 35 59  1  0  0  0  0
 35 60  1  0  0  0  0
 36 37  1  0  0  0  0
 36 38  1  0  0  0  0
 36 39  1  0  0  0  0
 38 61  1  0  0  0  0
 38 62  1  0  0  0  0
 39 40  1  0  0  0  0
 39 63  1  0  0  0  0
 39 64  1  0  0  0  0
 40 65  1  0  0  0  0
 40 66  1  0  0  0  0
 41 42  1  0  0  0  0
 41 67  1  0  0  0  0
 41 68  1  0  0  0  0
 42 69  1  0  0  0  0
 42 70  1  0  0  0  0
M  END
>  <energy>
213.75326115498021

$$$$
