3GX3_SAH_A_301
  1228              3D

 46 48  0  0  0  0  0  0  0  0999 V2000
    3.4142    4.4386   -2.1707 N   0  0  0  0  0  0  0  0  0  0  0  0
    4.8010    3.9887   -2.1378 C   0  0  0  0  0  0  0  0  0  0  0  0
    5.3405    4.5571   -2.9038 H   0  0  0  0  0  0  0  0  0  0  0  0
    5.5151    4.2420   -0.7990 C   0  0  0  0  0  0  0  0  0  0  0  0
    4.8243    3.7274    0.4644 C   0  0  0  0  0  0  0  0  0  0  0  0
    3.3240    4.7424    0.8259 S   0  0  0  0  0  0  0  0  0  0  0  0
    3.3651    4.6923    2.6065 C   0  0  0  0  0  0  0  0  0  0  0  0
    3.0462    5.9600    3.4036 C   0  0  0  0  0  0  0  0  0  0  0  0
    3.8942    6.0027    4.0985 H   0  0  0  0  0  0  0  0  0  0  0  0
    2.9886    7.3140    2.8616 O   0  0  0  0  0  0  0  0  0  0  0  0
    2.6958    8.0569    4.0968 C   0  0  0  0  0  0  0  0  0  0  0  0
    3.5844    7.9456    4.7344 H   0  0  0  0  0  0  0  0  0  0  0  0
    1.4907    7.2839    4.6427 C   0  0  0  0  0  0  0  0  0  0  0  0
    0.5999    7.6548    4.1210 H   0  0  0  0  0  0  0  0  0  0  0  0
    1.7561    5.8390    4.2044 C   0  0  0  0  0  0  0  0  0  0  0  0
    0.9337    5.5082    3.5603 H   0  0  0  0  0  0  0  0  0  0  0  0
    1.8929    4.8640    5.2235 O   0  0  0  0  0  0  0  0  0  0  0  0
    1.3453    7.4651    6.0316 O   0  0  0  0  0  0  0  0  0  0  0  0
    2.5372    9.5117    4.0293 N   0  0  0  0  0  0  0  0  0  0  0  0
    2.5188   10.2816    5.1842 C   0  0  0  0  0  0  0  0  0  0  0  0
    2.4739   11.5713    4.9355 N   0  0  0  0  0  0  0  0  0  0  0  0
    2.6703   11.6618    3.5782 C   0  0  0  0  0  0  0  0  0  0  0  0
    2.5861   12.8030    2.7469 C   0  0  0  0  0  0  0  0  0  0  0  0
    2.8702   14.0984    3.2374 N   0  0  0  0  0  0  0  0  0  0  0  0
    2.5945   12.5749    1.4038 N   0  0  0  0  0  0  0  0  0  0  0  0
    2.4809   11.2963    0.9681 C   0  0  0  0  0  0  0  0  0  0  0  0
    2.4441   10.1467    1.6783 N   0  0  0  0  0  0  0  0  0  0  0  0
    2.4621   10.4045    2.9933 C   0  0  0  0  0  0  0  0  0  0  0  0
    4.8108    2.5237   -2.5140 C   0  0  0  0  0  0  0  0  0  0  0  0
    4.3562    1.6076   -1.8441 O   0  0  0  0  0  0  0  0  0  0  0  0
    5.3834    2.3479   -3.7315 O   0  0  0  0  0  0  0  0  0  0  0  0
    2.8792    3.9543   -1.4484 H   0  0  0  0  0  0  0  0  0  0  0  0
    2.9726    4.2116   -3.0578 H   0  0  0  0  0  0  0  0  0  0  0  0
    5.7059    5.3179   -0.6849 H   0  0  0  0  0  0  0  0  0  0  0  0
    6.5160    3.7880   -0.8499 H   0  0  0  0  0  0  0  0  0  0  0  0
    5.5412    3.8137    1.2895 H   0  0  0  0  0  0  0  0  0  0  0  0
    4.5796    2.6610    0.3919 H   0  0  0  0  0  0  0  0  0  0  0  0
    4.3659    4.3755    2.9106 H   0  0  0  0  0  0  0  0  0  0  0  0
    2.7117    3.8645    2.9072 H   0  0  0  0  0  0  0  0  0  0  0  0
    2.4474    5.2146    5.9378 H   0  0  0  0  0  0  0  0  0  0  0  0
    1.0891    6.6193    6.4319 H   0  0  0  0  0  0  0  0  0  0  0  0
    2.5139    9.8444    6.1743 H   0  0  0  0  0  0  0  0  0  0  0  0
    2.3061   14.3211    4.0549 H   0  0  0  0  0  0  0  0  0  0  0  0
    2.6915   14.7969    2.5166 H   0  0  0  0  0  0  0  0  0  0  0  0
    2.4371   11.1806   -0.1083 H   0  0  0  0  0  0  0  0  0  0  0  0
    6.3432    2.1601   -3.6587 H   0  0  0  0  0  0  0  0  0  0  0  0
  1  2  1  0  0  0  0
  1 32  1  0  0  0  0
  1 33  1  0  0  0  0
  2  3  1  0  0  0  0
  2  4  1  0  0  0  0
  2 29  1  0  0  0  0
  4  5  1  0  0  0  0
  4 34  1  0  0  0  0
  4 35  1  0  0  0  0
  5  6  1  0  0  0  0
  5 36  1  0  0  0  0
  5 37  1  0  0  0  0
  6  7  1  0  0  0  0
  7  8  1  0  0  0  0
  7 38  1  0  0  0  0
  7 39  1  0  0  0  0
  8  9  1  0  0  0  0
  8 10  1  0  0  0  0
  8 15  1  0  0  0  0
 10 11  1  0  0  0  0
 11 13  1  0  0  0  0
 11 19  1  0  0  0  0
 11 12  1  0  0  0  0
 13 14  1  0  0  0  0
 13 15  1  0  0  0  0
 13 18  1  0  0  0  0
 15 16  1  0  0  0  0
 15 17  1  0  0  0  0
 17 40  1  0  0  0  0
 18 41  1  0  0  0  0
 19 20  1  0  0  0  0
 19 28  1  0  0  0  0
 20 21  2  0  0  0  0
 20 42  1  0  0  0  0
 21 22  1  0  0  0  0
 22 23  2  0  0  0  0
 22 28  1  0  0  0  0
 23 24  1  0  0  0  0
 23 25  1  0  0  0  0
 24 43  1  0  0  0  0
 24 44  1  0  0  0  0
 25 26  2  0  0  0  0
 26 27  1  0  0  0  0
 26 45  1  0  0  0  0
 27 28  2  0  0  0  0
 29 30  2  0  0  0  0
 29 31  1  0  0  0  0
 31 46  1  0  0  0  0
M  END
>  <energy>
111.96029347091934

$$$$
