4ZNP_AMZ_A_101
  1228              3D

 37 38  0  0  0  0  0  0  0  0999 V2000
    5.1834    1.9928   -0.0464 O   0  0  0  0  0  0  0  0  0  0  0  0
    4.0543    2.0049   -0.5308 C   0  0  0  0  0  0  0  0  0  0  0  0
    3.3816    3.1645   -0.8497 N   0  0  0  0  0  0  0  0  0  0  0  0
    3.3180    0.7812   -0.7806 C   0  0  0  0  0  0  0  0  0  0  0  0
    1.9473    0.5803   -0.8186 C   0  0  0  0  0  0  0  0  0  0  0  0
    0.9059    1.4389   -0.7657 N   0  0  0  0  0  0  0  0  0  0  0  0
    1.7911   -0.7840   -0.8744 N   0  0  0  0  0  0  0  0  0  0  0  0
    3.0383   -1.3093   -1.0978 C   0  0  0  0  0  0  0  0  0  0  0  0
    3.9792   -0.4244   -0.8708 N   0  0  0  0  0  0  0  0  0  0  0  0
    0.6314   -1.5891   -0.5408 C   0  0  0  0  0  0  0  0  0  0  0  0
    0.9112   -2.6429   -0.6830 H   0  0  0  0  0  0  0  0  0  0  0  0
    0.0409   -1.3616    0.8453 C   0  0  0  0  0  0  0  0  0  0  0  0
   -0.0661   -0.2960    1.0770 H   0  0  0  0  0  0  0  0  0  0  0  0
   -1.3360   -1.9728    0.6687 C   0  0  0  0  0  0  0  0  0  0  0  0
   -2.0550   -1.6398    1.4218 H   0  0  0  0  0  0  0  0  0  0  0  0
   -1.2422   -3.3956    0.7621 O   0  0  0  0  0  0  0  0  0  0  0  0
   -1.6898   -1.5908   -0.7722 C   0  0  0  0  0  0  0  0  0  0  0  0
   -2.1607   -2.4276   -1.3013 H   0  0  0  0  0  0  0  0  0  0  0  0
   -0.4413   -1.2940   -1.4477 O   0  0  0  0  0  0  0  0  0  0  0  0
   -2.5835   -0.3595   -0.8467 C   0  0  0  0  0  0  0  0  0  0  0  0
   -2.9973   -0.1768   -2.1964 O   0  0  0  0  0  0  0  0  0  0  0  0
   -4.1463    0.9184   -2.5095 P   0  0  0  0  0  0  0  0  0  0  0  0
   -3.9582    2.2600   -1.8639 O   0  0  0  0  0  0  0  0  0  0  0  0
   -5.5154    0.1519   -2.1157 O   0  0  0  0  0  0  0  0  0  0  0  0
   -4.1935    0.9437   -4.1263 O   0  0  0  0  0  0  0  0  0  0  0  0
    0.7998   -1.9735    1.8662 O   0  0  0  0  0  0  0  0  0  0  0  0
    2.7518    3.5583   -0.1545 H   0  0  0  0  0  0  0  0  0  0  0  0
    3.0660    3.3034   -1.8057 H   0  0  0  0  0  0  0  0  0  0  0  0
    0.9356    2.1416   -0.0292 H   0  0  0  0  0  0  0  0  0  0  0  0
   -0.0291    1.0427   -0.8126 H   0  0  0  0  0  0  0  0  0  0  0  0
    3.1907   -2.3369   -1.4005 H   0  0  0  0  0  0  0  0  0  0  0  0
   -2.1288   -3.7543    0.5850 H   0  0  0  0  0  0  0  0  0  0  0  0
   -2.0629    0.5420   -0.5121 H   0  0  0  0  0  0  0  0  0  0  0  0
   -3.4718   -0.4937   -0.2203 H   0  0  0  0  0  0  0  0  0  0  0  0
   -6.2146    0.0409   -2.7946 H   0  0  0  0  0  0  0  0  0  0  0  0
   -4.8035    1.5668   -4.5761 H   0  0  0  0  0  0  0  0  0  0  0  0
    1.5911   -1.4246    2.0055 H   0  0  0  0  0  0  0  0  0  0  0  0
  2  1  2  0  0  0  0
  3  2  1  0  0  0  0
  4  2  1  0  0  0  0
  5  4  2  0  0  0  0
  6  5  1  0  0  0  0
  7  5  1  0  0  0  0
  8  7  1  0  0  0  0
  9  8  2  0  0  0  0
  9  4  1  0  0  0  0
 10  7  1  0  0  0  0
 10 11  1  0  0  0  0
 12 10  1  0  0  0  0
 12 13  1  0  0  0  0
 14 12  1  0  0  0  0
 14 15  1  0  0  0  0
 16 14  1  0  0  0  0
 17 14  1  0  0  0  0
 17 18  1  0  0  0  0
 19 17  1  0  0  0  0
 19 10  1  0  0  0  0
 20 17  1  0  0  0  0
 21 20  1  0  0  0  0
 22 21  1  0  0  0  0
 23 22  2  0  0  0  0
 24 22  1  0  0  0  0
 25 22  1  0  0  0  0
 26 12  1  0  0  0  0
  3 27  1  0  0  0  0
  3 28  1  0  0  0  0
  6 29  1  0  0  0  0
  6 30  1  0  0  0  0
  8 31  1  0  0  0  0
 16 32  1  0  0  0  0
 20 33  1  0  0  0  0
 20 34  1  0  0  0  0
 24 35  1  0  0  0  0
 25 36  1  0  0  0  0
 26 37  1  0  0  0  0
M  END
>  <energy>
39.014510615050078

$$$$
