2KU0_ISI_A_39
  1228              3D

 50 52  0  0  0  0  0  0  0  0999 V2000
   -3.2787   -2.7629    0.5072 C   0  0  0  0  0  0  0  0  0  0  0  0
   -2.5096   -3.6764   -0.2184 C   0  0  0  0  0  0  0  0  0  0  0  0
   -1.3029   -3.2356   -0.8164 C   0  0  0  0  0  0  0  0  0  0  0  0
   -0.7102   -2.0359   -0.3748 C   0  0  0  0  0  0  0  0  0  0  0  0
   -1.4136   -1.2024    0.5018 C   0  0  0  0  0  0  0  0  0  0  0  0
   -2.6644   -1.6086    0.9494 C   0  0  0  0  0  0  0  0  0  0  0  0
   -3.3217   -0.6567    1.6930 O   0  0  0  0  0  0  0  0  0  0  0  0
   -2.4361    0.4906    1.7376 C   0  0  0  0  0  0  0  0  0  0  0  0
   -2.3135    0.7810    2.7863 H   0  0  0  0  0  0  0  0  0  0  0  0
   -1.0939    0.0936    1.1373 C   0  0  0  0  0  0  0  0  0  0  0  0
   -3.1478    1.6218    0.9783 C   0  0  0  0  0  0  0  0  0  0  0  0
   -2.3602    2.7991    0.5848 N   0  0  0  0  0  0  0  0  0  0  0  0
   -3.2355    3.8502    0.0662 C   0  0  0  0  0  0  0  0  0  0  0  0
   -1.4506    3.3429    1.5879 C   0  0  0  0  0  0  0  0  0  0  0  0
    0.5189   -2.0031   -1.0420 N   0  0  0  0  0  0  0  0  0  0  0  0
    0.5367   -3.1437   -1.8568 C   0  0  0  0  0  0  0  0  0  0  0  0
    1.6108   -3.4284   -2.6297 N   0  0  0  0  0  0  0  0  0  0  0  0
   -0.3235   -4.0195   -1.3713 N   0  0  0  0  0  0  0  0  0  0  0  0
    1.3868   -0.8295   -1.2518 C   0  0  0  0  0  0  0  0  0  0  0  0
    1.7475   -0.0877    0.0346 C   0  0  0  0  0  0  0  0  0  0  0  0
    3.2251    0.1330    0.3708 C   0  0  0  0  0  0  0  0  0  0  0  0
    3.5325   -0.4040    1.7128 N   0  0  0  0  0  0  0  0  0  0  0  0
    4.9731   -0.4793    1.9422 C   0  0  0  0  0  0  0  0  0  0  0  0
    2.8720    0.3459    2.7880 C   0  0  0  0  0  0  0  0  0  0  0  0
   -4.2368   -3.0713    0.9169 H   0  0  0  0  0  0  0  0  0  0  0  0
   -2.9823   -4.5913   -0.5850 H   0  0  0  0  0  0  0  0  0  0  0  0
   -0.3566   -0.0418    1.9317 H   0  0  0  0  0  0  0  0  0  0  0  0
   -0.7457    0.8122    0.4048 H   0  0  0  0  0  0  0  0  0  0  0  0
   -4.0272    1.9326    1.5559 H   0  0  0  0  0  0  0  0  0  0  0  0
   -3.5458    1.1847    0.0497 H   0  0  0  0  0  0  0  0  0  0  0  0
   -4.1902    3.4463   -0.2886 H   0  0  0  0  0  0  0  0  0  0  0  0
   -3.4614    4.6088    0.8243 H   0  0  0  0  0  0  0  0  0  0  0  0
   -2.7580    4.3490   -0.7840 H   0  0  0  0  0  0  0  0  0  0  0  0
   -0.6524    2.6366    1.8250 H   0  0  0  0  0  0  0  0  0  0  0  0
   -0.9366    4.2288    1.1902 H   0  0  0  0  0  0  0  0  0  0  0  0
   -1.9555    3.6245    2.5180 H   0  0  0  0  0  0  0  0  0  0  0  0
    1.6269   -4.3517   -3.0719 H   0  0  0  0  0  0  0  0  0  0  0  0
    2.0046   -2.6743   -3.1937 H   0  0  0  0  0  0  0  0  0  0  0  0
    2.3000   -1.1553   -1.7579 H   0  0  0  0  0  0  0  0  0  0  0  0
    0.8609   -0.1659   -1.9536 H   0  0  0  0  0  0  0  0  0  0  0  0
    1.3089   -0.6523    0.8550 H   0  0  0  0  0  0  0  0  0  0  0  0
    1.3003    0.9124   -0.0203 H   0  0  0  0  0  0  0  0  0  0  0  0
    3.8601   -0.3365   -0.3872 H   0  0  0  0  0  0  0  0  0  0  0  0
    3.4395    1.2101    0.3471 H   0  0  0  0  0  0  0  0  0  0  0  0
    5.4449   -1.1481    1.2134 H   0  0  0  0  0  0  0  0  0  0  0  0
    5.1887   -0.8957    2.9343 H   0  0  0  0  0  0  0  0  0  0  0  0
    5.4477    0.5055    1.8732 H   0  0  0  0  0  0  0  0  0  0  0  0
    1.8049    0.1057    2.8221 H   0  0  0  0  0  0  0  0  0  0  0  0
    2.9688    1.4291    2.6626 H   0  0  0  0  0  0  0  0  0  0  0  0
    3.2670    0.0724    3.7737 H   0  0  0  0  0  0  0  0  0  0  0  0
  2  1  2  0  0  0  0
  3  2  1  0  0  0  0
  4  3  2  0  0  0  0
  5  4  1  0  0  0  0
  6  5  2  0  0  0  0
  6  1  1  0  0  0  0
  7  6  1  0  0  0  0
  8  7  1  0  0  0  0
  8  9  1  0  0  0  0
 10  8  1  0  0  0  0
 10  5  1  0  0  0  0
 11  8  1  0  0  0  0
 12 11  1  0  0  0  0
 13 12  1  0  0  0  0
 14 12  1  0  0  0  0
 15  4  1  0  0  0  0
 16 15  1  0  0  0  0
 17 16  1  0  0  0  0
 18 16  2  0  0  0  0
 18  3  1  0  0  0  0
 19 15  1  0  0  0  0
 20 19  1  0  0  0  0
 21 20  1  0  0  0  0
 22 21  1  0  0  0  0
 23 22  1  0  0  0  0
 24 22  1  0  0  0  0
  1 25  1  0  0  0  0
  2 26  1  0  0  0  0
 10 27  1  0  0  0  0
 10 28  1  0  0  0  0
 11 29  1  0  0  0  0
 11 30  1  0  0  0  0
 13 31  1  0  0  0  0
 13 32  1  0  0  0  0
 13 33  1  0  0  0  0
 14 34  1  0  0  0  0
 14 35  1  0  0  0  0
 14 36  1  0  0  0  0
 17 37  1  0  0  0  0
 17 38  1  0  0  0  0
 19 39  1  0  0  0  0
 19 40  1  0  0  0  0
 20 41  1  0  0  0  0
 20 42  1  0  0  0  0
 21 43  1  0  0  0  0
 21 44  1  0  0  0  0
 23 45  1  0  0  0  0
 23 46  1  0  0  0  0
 23 47  1  0  0  0  0
 24 48  1  0  0  0  0
 24 49  1  0  0  0  0
 24 50  1  0  0  0  0
M  END
>  <energy>
93.493608266696654

$$$$
