3Q50_PRF_A_34
  1228              3D

 22 23  0  0  0  0  0  0  0  0999 V2000
    2.1905   -1.0056   -0.1707 N   0  0  0  0  0  0  0  0  0  0  0  0
    2.8337   -1.7857   -0.2732 H   0  0  0  0  0  0  0  0  0  0  0  0
    2.7437    0.2792    0.0006 C   0  0  0  0  0  0  0  0  0  0  0  0
    2.0007    1.3436    0.1949 N   0  0  0  0  0  0  0  0  0  0  0  0
    0.6703    1.1092    0.0800 C   0  0  0  0  0  0  0  0  0  0  0  0
    0.0155   -0.0932   -0.0922 C   0  0  0  0  0  0  0  0  0  0  0  0
    0.8200   -1.2864   -0.2501 C   0  0  0  0  0  0  0  0  0  0  0  0
    0.3530   -2.4010   -0.4498 O   0  0  0  0  0  0  0  0  0  0  0  0
   -1.3900    0.1585   -0.1036 C   0  0  0  0  0  0  0  0  0  0  0  0
   -2.4863   -0.8464   -0.2521 C   0  0  0  0  0  0  0  0  0  0  0  0
   -3.6633   -0.2975   -0.9207 N   0  0  0  0  0  0  0  0  0  0  0  0
   -1.5237    1.5221    0.1158 C   0  0  0  0  0  0  0  0  0  0  0  0
   -0.2760    2.0843    0.2108 N   0  0  0  0  0  0  0  0  0  0  0  0
   -0.0893    3.0675    0.3531 H   0  0  0  0  0  0  0  0  0  0  0  0
    4.1233    0.3351    0.0362 N   0  0  0  0  0  0  0  0  0  0  0  0
   -2.7661   -1.2151    0.7408 H   0  0  0  0  0  0  0  0  0  0  0  0
   -2.1427   -1.7047   -0.8362 H   0  0  0  0  0  0  0  0  0  0  0  0
   -3.4573    0.5828   -1.3897 H   0  0  0  0  0  0  0  0  0  0  0  0
   -4.3906   -0.1004   -0.2344 H   0  0  0  0  0  0  0  0  0  0  0  0
   -2.4032    2.1460    0.2044 H   0  0  0  0  0  0  0  0  0  0  0  0
    4.5881   -0.5503   -0.1578 H   0  0  0  0  0  0  0  0  0  0  0  0
    4.4925    0.7094    0.9090 H   0  0  0  0  0  0  0  0  0  0  0  0
  1  2  1  0  0  0  0
  3  1  1  0  0  0  0
  4  3  2  0  0  0  0
  5  4  1  0  0  0  0
  6  5  2  0  0  0  0
  7  6  1  0  0  0  0
  7  1  1  0  0  0  0
  8  7  2  0  0  0  0
  9  6  1  0  0  0  0
 10  9  1  0  0  0  0
 11 10  1  0  0  0  0
 12  9  2  0  0  0  0
 13 12  1  0  0  0  0
 13 14  1  0  0  0  0
 13  5  1  0  0  0  0
 15  3  1  0  0  0  0
 10 16  1  0  0  0  0
 10 17  1  0  0  0  0
 11 18  1  0  0  0  0
 11 19  1  0  0  0  0
 12 20  1  0  0  0  0
 15 21  1  0  0  0  0
 15 22  1  0  0  0  0
M  END
>  <energy>
27.9651002894947

$$$$
