1KOD_CIR_B_1
  1228              3D

 25 24  0  0  0  0  0  0  0  0999 V2000
   -2.7657   -0.2283    0.6229 C   0  0  0  0  0  0  0  0  0  0  0  0
   -3.6391    0.5729    0.9367 O   0  0  0  0  0  0  0  0  0  0  0  0
   -2.3383   -1.2036    1.4577 O   0  0  0  0  0  0  0  0  0  0  0  0
   -2.1179   -0.2663   -0.7446 C   0  0  0  0  0  0  0  0  0  0  0  0
   -1.9847    0.7781   -1.0543 H   0  0  0  0  0  0  0  0  0  0  0  0
   -0.7784   -0.8516   -0.6728 N   0  0  0  0  0  0  0  0  0  0  0  0
   -3.0488   -0.9461   -1.7611 C   0  0  0  0  0  0  0  0  0  0  0  0
   -3.2335   -2.4540   -1.5673 C   0  0  0  0  0  0  0  0  0  0  0  0
   -4.6469   -2.8249   -1.1349 C   0  0  0  0  0  0  0  0  0  0  0  0
   -4.7127   -4.2446   -0.8411 N   0  0  0  0  0  0  0  0  0  0  0  0
   -5.9245   -4.8910   -0.6568 C   0  0  0  0  0  0  0  0  0  0  0  0
   -6.8608   -4.4501    0.0054 O   0  0  0  0  0  0  0  0  0  0  0  0
   -5.9404   -6.1297   -1.2728 N   0  0  0  0  0  0  0  0  0  0  0  0
   -2.7055   -1.0779    2.3581 H   0  0  0  0  0  0  0  0  0  0  0  0
   -0.3079   -0.7355   -1.5695 H   0  0  0  0  0  0  0  0  0  0  0  0
   -0.8312   -1.8581   -0.5224 H   0  0  0  0  0  0  0  0  0  0  0  0
   -2.6504   -0.7680   -2.7684 H   0  0  0  0  0  0  0  0  0  0  0  0
   -4.0259   -0.4429   -1.7388 H   0  0  0  0  0  0  0  0  0  0  0  0
   -3.0043   -2.9643   -2.5106 H   0  0  0  0  0  0  0  0  0  0  0  0
   -2.5296   -2.8483   -0.8286 H   0  0  0  0  0  0  0  0  0  0  0  0
   -5.3705   -2.6012   -1.9259 H   0  0  0  0  0  0  0  0  0  0  0  0
   -4.9359   -2.2818   -0.2286 H   0  0  0  0  0  0  0  0  0  0  0  0
   -3.9218   -4.8199   -1.1156 H   0  0  0  0  0  0  0  0  0  0  0  0
   -5.1788   -6.7647   -1.0478 H   0  0  0  0  0  0  0  0  0  0  0  0
   -6.1914   -6.1524   -2.2571 H   0  0  0  0  0  0  0  0  0  0  0  0
  2  1  2  0  0  0  0
  3  1  1  0  0  0  0
  4  1  1  0  0  0  0
  4  5  1  0  0  0  0
  6  4  1  0  0  0  0
  7  4  1  0  0  0  0
  8  7  1  0  0  0  0
  9  8  1  0  0  0  0
 10  9  1  0  0  0  0
 11 10  1  0  0  0  0
 12 11  2  0  0  0  0
 13 11  1  0  0  0  0
  3 14  1  0  0  0  0
  6 15  1  0  0  0  0
  6 16  1  0  0  0  0
  7 17  1  0  0  0  0
  7 18  1  0  0  0  0
  8 19  1  0  0  0  0
  8 20  1  0  0  0  0
  9 21  1  0  0  0  0
  9 22  1  0  0  0  0
 10 23  1  0  0  0  0
 13 24  1  0  0  0  0
 13 25  1  0  0  0  0
M  END
>  <energy>
32.839813426276081

$$$$
