3RKF_DX4_A_91
  1228              3D

 16 17  0  0  0  0  0  0  0  0999 V2000
    0.7007   -0.5569    0.1373 C   0  0  0  0  0  0  0  0  0  0  0  0
    0.9384    0.8001    0.0952 C   0  0  0  0  0  0  0  0  0  0  0  0
   -0.1904    1.6726   -0.0406 C   0  0  0  0  0  0  0  0  0  0  0  0
   -0.0092    3.3155   -0.1261 S   0  0  0  0  0  0  0  0  0  0  0  0
   -1.3878    0.9840   -0.1736 N   0  0  0  0  0  0  0  0  0  0  0  0
   -2.2416    1.5292   -0.2425 H   0  0  0  0  0  0  0  0  0  0  0  0
   -1.5101   -0.4200   -0.0983 C   0  0  0  0  0  0  0  0  0  0  0  0
   -2.8074   -0.8811   -0.1926 N   0  0  0  0  0  0  0  0  0  0  0  0
   -0.4736   -1.2214    0.0209 N   0  0  0  0  0  0  0  0  0  0  0  0
    2.2681    1.0833    0.2270 N   0  0  0  0  0  0  0  0  0  0  0  0
    2.8402   -0.0993    0.3361 C   0  0  0  0  0  0  0  0  0  0  0  0
    1.9306   -1.1267    0.2894 N   0  0  0  0  0  0  0  0  0  0  0  0
    2.1357   -2.1156    0.3555 H   0  0  0  0  0  0  0  0  0  0  0  0
   -3.1149   -1.4028    0.6261 H   0  0  0  0  0  0  0  0  0  0  0  0
   -3.4844   -0.1373   -0.3602 H   0  0  0  0  0  0  0  0  0  0  0  0
    3.8981   -0.2836    0.4540 H   0  0  0  0  0  0  0  0  0  0  0  0
  2  1  2  0  0  0  0
  3  2  1  0  0  0  0
  4  3  2  0  0  0  0
  5  3  1  0  0  0  0
  5  6  1  0  0  0  0
  7  5  1  0  0  0  0
  8  7  1  0  0  0  0
  9  7  2  0  0  0  0
  9  1  1  0  0  0  0
 10  2  1  0  0  0  0
 11 10  2  0  0  0  0
 12 11  1  0  0  0  0
 12 13  1  0  0  0  0
 12  1  1  0  0  0  0
  8 14  1  0  0  0  0
  8 15  1  0  0  0  0
 11 16  1  0  0  0  0
M  END
>  <energy>
25.719927067855103

$$$$
