3GX2_SFG_A_301
  1228              3D

 50 52  0  0  0  0  0  0  0  0999 V2000
   -1.2023   -6.5776   -2.5011 N   0  0  0  0  0  0  0  0  0  0  0  0
   -1.9552   -6.1190   -1.3340 C   0  0  0  0  0  0  0  0  0  0  0  0
   -2.5953   -6.9328   -0.9793 H   0  0  0  0  0  0  0  0  0  0  0  0
   -2.9138   -5.0086   -1.7468 C   0  0  0  0  0  0  0  0  0  0  0  0
   -3.3622   -4.8684   -2.8778 O   0  0  0  0  0  0  0  0  0  0  0  0
   -3.2602   -4.1760   -0.7315 O   0  0  0  0  0  0  0  0  0  0  0  0
   -0.9663   -5.7442   -0.2307 C   0  0  0  0  0  0  0  0  0  0  0  0
   -0.1977   -4.4466   -0.5385 C   0  0  0  0  0  0  0  0  0  0  0  0
   -0.0075   -3.5171    0.6656 C   0  0  0  0  0  0  0  0  0  0  0  0
    0.7411   -3.9994    1.2995 H   0  0  0  0  0  0  0  0  0  0  0  0
   -1.2182   -3.3493    1.4748 N   0  0  0  0  0  0  0  0  0  0  0  0
    0.4680   -2.1188    0.1977 C   0  0  0  0  0  0  0  0  0  0  0  0
    1.9949   -1.9909    0.2547 C   0  0  0  0  0  0  0  0  0  0  0  0
    2.4326   -2.7428   -0.4078 H   0  0  0  0  0  0  0  0  0  0  0  0
    2.4237   -0.7066   -0.2270 O   0  0  0  0  0  0  0  0  0  0  0  0
    2.3708    0.2365    0.8669 C   0  0  0  0  0  0  0  0  0  0  0  0
    3.2550    0.8831    0.8254 H   0  0  0  0  0  0  0  0  0  0  0  0
    2.2906   -0.6205    2.1365 C   0  0  0  0  0  0  0  0  0  0  0  0
    1.2916   -0.5820    2.5848 H   0  0  0  0  0  0  0  0  0  0  0  0
    2.5505   -2.0383    1.6631 C   0  0  0  0  0  0  0  0  0  0  0  0
    2.0807   -2.7592    2.3360 H   0  0  0  0  0  0  0  0  0  0  0  0
    3.9453   -2.3090    1.6081 O   0  0  0  0  0  0  0  0  0  0  0  0
    3.2210   -0.2102    3.1144 O   0  0  0  0  0  0  0  0  0  0  0  0
    1.1980    1.0838    0.6532 N   0  0  0  0  0  0  0  0  0  0  0  0
    0.6782    1.9709    1.5680 C   0  0  0  0  0  0  0  0  0  0  0  0
   -0.4094    2.5483    1.0922 N   0  0  0  0  0  0  0  0  0  0  0  0
   -0.3602    2.3233   -0.2634 C   0  0  0  0  0  0  0  0  0  0  0  0
   -1.1745    2.7610   -1.3212 C   0  0  0  0  0  0  0  0  0  0  0  0
   -2.2384    3.6599   -1.1316 N   0  0  0  0  0  0  0  0  0  0  0  0
   -0.8533    2.3289   -2.5750 N   0  0  0  0  0  0  0  0  0  0  0  0
    0.1884    1.4816   -2.7236 C   0  0  0  0  0  0  0  0  0  0  0  0
    0.9151    0.8929   -1.7625 N   0  0  0  0  0  0  0  0  0  0  0  0
    0.6981    1.4753   -0.5706 C   0  0  0  0  0  0  0  0  0  0  0  0
   -1.0353   -5.8127   -3.1535 H   0  0  0  0  0  0  0  0  0  0  0  0
   -1.7314   -7.2900   -2.9993 H   0  0  0  0  0  0  0  0  0  0  0  0
   -3.3500   -4.5870    0.1543 H   0  0  0  0  0  0  0  0  0  0  0  0
   -0.2416   -6.5553   -0.0573 H   0  0  0  0  0  0  0  0  0  0  0  0
   -1.5480   -5.7025    0.6955 H   0  0  0  0  0  0  0  0  0  0  0  0
    0.7960   -4.7268   -0.9157 H   0  0  0  0  0  0  0  0  0  0  0  0
   -0.6527   -3.8863   -1.3615 H   0  0  0  0  0  0  0  0  0  0  0  0
   -1.0598   -2.6359    2.1874 H   0  0  0  0  0  0  0  0  0  0  0  0
   -1.3954   -4.2047    2.0004 H   0  0  0  0  0  0  0  0  0  0  0  0
    0.1331   -1.9039   -0.8261 H   0  0  0  0  0  0  0  0  0  0  0  0
   -0.0080   -1.3401    0.8058 H   0  0  0  0  0  0  0  0  0  0  0  0
    4.0950   -2.9419    0.8843 H   0  0  0  0  0  0  0  0  0  0  0  0
    2.8418   -0.4634    3.9725 H   0  0  0  0  0  0  0  0  0  0  0  0
    0.9505    1.9446    2.6156 H   0  0  0  0  0  0  0  0  0  0  0  0
   -2.7892    3.7298   -1.9860 H   0  0  0  0  0  0  0  0  0  0  0  0
   -1.8836    4.5853   -0.8972 H   0  0  0  0  0  0  0  0  0  0  0  0
    0.3828    1.1441   -3.7347 H   0  0  0  0  0  0  0  0  0  0  0  0
  2  1  1  0  0  0  0
  2  3  1  0  0  0  0
  4  2  1  0  0  0  0
  5  4  2  0  0  0  0
  6  4  1  0  0  0  0
  7  2  1  0  0  0  0
  8  7  1  0  0  0  0
  9  8  1  0  0  0  0
  9 10  1  0  0  0  0
 11  9  1  0  0  0  0
 12  9  1  0  0  0  0
 13 12  1  0  0  0  0
 13 14  1  0  0  0  0
 15 13  1  0  0  0  0
 16 15  1  0  0  0  0
 16 17  1  0  0  0  0
 18 16  1  0  0  0  0
 18 19  1  0  0  0  0
 20 18  1  0  0  0  0
 20 21  1  0  0  0  0
 20 13  1  0  0  0  0
 22 20  1  0  0  0  0
 23 18  1  0  0  0  0
 24 16  1  0  0  0  0
 25 24  1  0  0  0  0
 26 25  2  0  0  0  0
 27 26  1  0  0  0  0
 28 27  1  0  0  0  0
 29 28  1  0  0  0  0
 30 28  2  0  0  0  0
 31 30  1  0  0  0  0
 32 31  2  0  0  0  0
 33 32  1  0  0  0  0
 33 24  1  0  0  0  0
 33 27  2  0  0  0  0
  1 34  1  0  0  0  0
  1 35  1  0  0  0  0
  6 36  1  0  0  0  0
  7 37  1  0  0  0  0
  7 38  1  0  0  0  0
  8 39  1  0  0  0  0
  8 40  1  0  0  0  0
 11 41  1  0  0  0  0
 11 42  1  0  0  0  0
 12 43  1  0  0  0  0
 12 44  1  0  0  0  0
 22 45  1  0  0  0  0
 23 46  1  0  0  0  0
 25 47  1  0  0  0  0
 29 48  1  0  0  0  0
 29 49  1  0  0  0  0
 31 50  1  0  0  0  0
M  END
>  <energy>
80.885240126505039

$$$$
