1EHT_TEP_A_34
  1228              3D

 21 22  0  0  0  0  0  0  0  0999 V2000
   -1.0922   -2.7897    0.2559 C   0  0  0  0  0  0  0  0  0  0  0  0
   -0.5229   -1.4513    0.1202 N   0  0  0  0  0  0  0  0  0  0  0  0
   -1.4264   -0.3373    0.1833 C   0  0  0  0  0  0  0  0  0  0  0  0
   -2.6440   -0.4837    0.3406 O   0  0  0  0  0  0  0  0  0  0  0  0
   -0.8302    0.9483    0.0953 N   0  0  0  0  0  0  0  0  0  0  0  0
   -1.6849    2.1284    0.1255 C   0  0  0  0  0  0  0  0  0  0  0  0
    0.5403    1.0580   -0.1207 C   0  0  0  0  0  0  0  0  0  0  0  0
    1.3530   -0.0441   -0.1636 C   0  0  0  0  0  0  0  0  0  0  0  0
    0.8893   -1.3898   -0.0415 C   0  0  0  0  0  0  0  0  0  0  0  0
    1.6295   -2.3687   -0.0831 O   0  0  0  0  0  0  0  0  0  0  0  0
    2.6132    0.4482   -0.3580 N   0  0  0  0  0  0  0  0  0  0  0  0
    3.4742   -0.0786   -0.4422 H   0  0  0  0  0  0  0  0  0  0  0  0
    2.5033    1.8151   -0.4078 C   0  0  0  0  0  0  0  0  0  0  0  0
    1.2550    2.2163   -0.2801 N   0  0  0  0  0  0  0  0  0  0  0  0
   -2.1829   -2.7904    0.1629 H   0  0  0  0  0  0  0  0  0  0  0  0
   -0.8162   -3.1818    1.2395 H   0  0  0  0  0  0  0  0  0  0  0  0
   -0.6941   -3.4365   -0.5327 H   0  0  0  0  0  0  0  0  0  0  0  0
   -2.5644    1.9468    0.7519 H   0  0  0  0  0  0  0  0  0  0  0  0
   -1.1443    2.9769    0.5537 H   0  0  0  0  0  0  0  0  0  0  0  0
   -2.0113    2.3650   -0.8914 H   0  0  0  0  0  0  0  0  0  0  0  0
    3.3659    2.4522   -0.5523 H   0  0  0  0  0  0  0  0  0  0  0  0
  2  1  1  0  0  0  0
  3  2  1  0  0  0  0
  4  3  2  0  0  0  0
  5  3  1  0  0  0  0
  6  5  1  0  0  0  0
  7  5  1  0  0  0  0
  8  7  2  0  0  0  0
  9  8  1  0  0  0  0
  9  2  1  0  0  0  0
 10  9  2  0  0  0  0
 11  8  1  0  0  0  0
 11 12  1  0  0  0  0
 13 11  1  0  0  0  0
 14 13  2  0  0  0  0
 14  7  1  0  0  0  0
  1 15  1  0  0  0  0
  1 16  1  0  0  0  0
  1 17  1  0  0  0  0
  6 18  1  0  0  0  0
  6 19  1  0  0  0  0
  6 20  1  0  0  0  0
 13 21  1  0  0  0  0
M  END
>  <energy>
21.216537477067678

$$$$
