2ET4_NMY_A_50
  1228              3D

 88 91  0  0  0  0  0  0  0  0999 V2000
    0.9059   -3.9115    7.4120 C   0  0  0  0  0  0  0  0  0  0  0  0
    1.1522   -4.8430    6.8870 H   0  0  0  0  0  0  0  0  0  0  0  0
    0.8308   -2.8503    6.4528 O   0  0  0  0  0  0  0  0  0  0  0  0
    1.9245   -2.8269    5.5141 C   0  0  0  0  0  0  0  0  0  0  0  0
    2.5929   -3.6839    5.6880 H   0  0  0  0  0  0  0  0  0  0  0  0
    1.3237   -2.9539    4.0923 C   0  0  0  0  0  0  0  0  0  0  0  0
    0.7358   -3.8769    4.0170 H   0  0  0  0  0  0  0  0  0  0  0  0
    0.4070   -1.7607    3.7334 C   0  0  0  0  0  0  0  0  0  0  0  0
    0.4568   -1.5744    2.6521 H   0  0  0  0  0  0  0  0  0  0  0  0
    0.7168   -0.4715    4.5163 C   0  0  0  0  0  0  0  0  0  0  0  0
    0.1642   -0.4541    5.4635 H   0  0  0  0  0  0  0  0  0  0  0  0
    0.2520    0.6850    3.7491 N   0  0  0  0  0  0  0  0  0  0  0  0
    2.2153   -0.3504    4.7895 C   0  0  0  0  0  0  0  0  0  0  0  0
    2.7039   -1.4943    5.6975 C   0  0  0  0  0  0  0  0  0  0  0  0
    2.5847   -1.1543    6.7278 H   0  0  0  0  0  0  0  0  0  0  0  0
    4.1416   -1.7260    5.5137 N   0  0  0  0  0  0  0  0  0  0  0  0
   -0.9487   -2.1215    4.0123 O   0  0  0  0  0  0  0  0  0  0  0  0
    2.4087   -2.9663    3.1395 O   0  0  0  0  0  0  0  0  0  0  0  0
    2.9950   -4.2417    2.9097 C   0  0  0  0  0  0  0  0  0  0  0  0
    2.5931   -5.0089    3.5844 H   0  0  0  0  0  0  0  0  0  0  0  0
    2.8077   -4.6389    1.4532 C   0  0  0  0  0  0  0  0  0  0  0  0
    2.9591   -3.7691    0.7962 H   0  0  0  0  0  0  0  0  0  0  0  0
    3.9259   -5.6442    1.2543 C   0  0  0  0  0  0  0  0  0  0  0  0
    4.1252   -5.8194    0.1932 H   0  0  0  0  0  0  0  0  0  0  0  0
    5.0574   -4.9883    2.0387 C   0  0  0  0  0  0  0  0  0  0  0  0
    5.6794   -5.7433    2.5291 H   0  0  0  0  0  0  0  0  0  0  0  0
    4.4279   -4.2132    3.0877 O   0  0  0  0  0  0  0  0  0  0  0  0
    5.9319   -4.0531    1.2219 C   0  0  0  0  0  0  0  0  0  0  0  0
    6.6429   -4.7880    0.2384 O   0  0  0  0  0  0  0  0  0  0  0  0
    3.5797   -6.8508    1.9393 O   0  0  0  0  0  0  0  0  0  0  0  0
    3.8884   -8.0788    1.2792 C   0  0  0  0  0  0  0  0  0  0  0  0
    2.9730   -8.3603    0.7450 H   0  0  0  0  0  0  0  0  0  0  0  0
    4.2171   -9.1449    2.3575 C   0  0  0  0  0  0  0  0  0  0  0  0
    3.2630   -9.4750    2.7957 H   0  0  0  0  0  0  0  0  0  0  0  0
    4.9699  -10.3319    1.7362 C   0  0  0  0  0  0  0  0  0  0  0  0
    6.0562  -10.1956    1.8139 H   0  0  0  0  0  0  0  0  0  0  0  0
    4.6072  -10.4679    0.2593 C   0  0  0  0  0  0  0  0  0  0  0  0
    3.5274  -10.6168    0.1610 H   0  0  0  0  0  0  0  0  0  0  0  0
    5.0156   -9.1893   -0.5104 C   0  0  0  0  0  0  0  0  0  0  0  0
    4.2981   -9.0211   -1.3267 H   0  0  0  0  0  0  0  0  0  0  0  0
    4.9578   -8.0232    0.3379 O   0  0  0  0  0  0  0  0  0  0  0  0
    6.4368   -9.2164   -1.0844 C   0  0  0  0  0  0  0  0  0  0  0  0
    6.4937   -9.8967   -2.3784 N   0  0  0  0  0  0  0  0  0  0  0  0
    5.2098  -11.6365   -0.2847 O   0  0  0  0  0  0  0  0  0  0  0  0
    4.6441  -11.5240    2.4437 O   0  0  0  0  0  0  0  0  0  0  0  0
    5.0033   -8.5871    3.4671 N   0  0  0  0  0  0  0  0  0  0  0  0
    1.5238   -5.1736    1.2133 O   0  0  0  0  0  0  0  0  0  0  0  0
   -0.4528   -4.1097    8.1195 C   0  0  0  0  0  0  0  0  0  0  0  0
   -0.3687   -4.9972    8.7609 H   0  0  0  0  0  0  0  0  0  0  0  0
   -1.5323   -4.3587    7.1690 N   0  0  0  0  0  0  0  0  0  0  0  0
   -0.7831   -2.9192    9.0290 C   0  0  0  0  0  0  0  0  0  0  0  0
   -0.9839   -2.0147    8.4372 H   0  0  0  0  0  0  0  0  0  0  0  0
   -1.9511   -3.2241    9.7923 O   0  0  0  0  0  0  0  0  0  0  0  0
    0.3898   -2.6674    9.9884 C   0  0  0  0  0  0  0  0  0  0  0  0
    0.4794   -3.4953   10.7031 H   0  0  0  0  0  0  0  0  0  0  0  0
    0.1142   -1.4881   10.7487 O   0  0  0  0  0  0  0  0  0  0  0  0
    1.6916   -2.5002    9.1874 C   0  0  0  0  0  0  0  0  0  0  0  0
    1.5729   -1.6523    8.5085 H   0  0  0  0  0  0  0  0  0  0  0  0
    1.9172   -3.6941    8.4132 O   0  0  0  0  0  0  0  0  0  0  0  0
    2.9214   -2.2696   10.0853 C   0  0  0  0  0  0  0  0  0  0  0  0
    3.5850   -1.0220    9.7169 N   0  0  0  0  0  0  0  0  0  0  0  0
   -0.7504    0.5928    3.5852 H   0  0  0  0  0  0  0  0  0  0  0  0
    0.3624    1.5317    4.3041 H   0  0  0  0  0  0  0  0  0  0  0  0
    2.4409    0.6110    5.2707 H   0  0  0  0  0  0  0  0  0  0  0  0
    2.7744   -0.3478    3.8474 H   0  0  0  0  0  0  0  0  0  0  0  0
    4.2852   -2.3980    4.7650 H   0  0  0  0  0  0  0  0  0  0  0  0
    4.5255   -2.1648    6.3534 H   0  0  0  0  0  0  0  0  0  0  0  0
   -0.9753   -2.4204    4.9424 H   0  0  0  0  0  0  0  0  0  0  0  0
    6.6562   -3.5566    1.8721 H   0  0  0  0  0  0  0  0  0  0  0  0
    5.3439   -3.2837    0.7109 H   0  0  0  0  0  0  0  0  0  0  0  0
    7.2735   -5.3652    0.7079 H   0  0  0  0  0  0  0  0  0  0  0  0
    7.1299   -9.7000   -0.3827 H   0  0  0  0  0  0  0  0  0  0  0  0
    6.7965   -8.1906   -1.2299 H   0  0  0  0  0  0  0  0  0  0  0  0
    6.5227  -10.9055   -2.2305 H   0  0  0  0  0  0  0  0  0  0  0  0
    7.3794   -9.6695   -2.8297 H   0  0  0  0  0  0  0  0  0  0  0  0
    4.7982  -12.4035    0.1531 H   0  0  0  0  0  0  0  0  0  0  0  0
    3.7110  -11.7286    2.2595 H   0  0  0  0  0  0  0  0  0  0  0  0
    4.3783   -8.3133    4.2289 H   0  0  0  0  0  0  0  0  0  0  0  0
    5.6221   -9.2965    3.8623 H   0  0  0  0  0  0  0  0  0  0  0  0
    1.3068   -4.9994    0.2784 H   0  0  0  0  0  0  0  0  0  0  0  0
   -1.2719   -5.1202    6.5413 H   0  0  0  0  0  0  0  0  0  0  0  0
   -1.6755   -3.5414    6.5787 H   0  0  0  0  0  0  0  0  0  0  0  0
   -2.3374   -2.3795   10.0806 H   0  0  0  0  0  0  0  0  0  0  0  0
    0.4860   -0.7249   10.2753 H   0  0  0  0  0  0  0  0  0  0  0  0
    2.6468   -2.2332   11.1450 H   0  0  0  0  0  0  0  0  0  0  0  0
    3.6440   -3.0875    9.9826 H   0  0  0  0  0  0  0  0  0  0  0  0
    4.4634   -0.9315   10.2269 H   0  0  0  0  0  0  0  0  0  0  0  0
    3.0070   -0.2305   10.0008 H   0  0  0  0  0  0  0  0  0  0  0  0
  1  2  1  0  0  0  0
  3  1  1  0  0  0  0
  4  3  1  0  0  0  0
  4  5  1  0  0  0  0
  6  4  1  0  0  0  0
  6  7  1  0  0  0  0
  8  6  1  0  0  0  0
  8  9  1  0  0  0  0
 10  8  1  0  0  0  0
 10 11  1  0  0  0  0
 12 10  1  0  0  0  0
 13 10  1  0  0  0  0
 14 13  1  0  0  0  0
 14 15  1  0  0  0  0
 14  4  1  0  0  0  0
 16 14  1  0  0  0  0
 17  8  1  0  0  0  0
 18  6  1  0  0  0  0
 19 18  1  0  0  0  0
 19 20  1  0  0  0  0
 21 19  1  0  0  0  0
 21 22  1  0  0  0  0
 23 21  1  0  0  0  0
 23 24  1  0  0  0  0
 25 23  1  0  0  0  0
 25 26  1  0  0  0  0
 27 25  1  0  0  0  0
 27 19  1  0  0  0  0
 28 25  1  0  0  0  0
 29 28  1  0  0  0  0
 30 23  1  0  0  0  0
 31 30  1  0  0  0  0
 31 32  1  0  0  0  0
 33 31  1  0  0  0  0
 33 34  1  0  0  0  0
 35 33  1  0  0  0  0
 35 36  1  0  0  0  0
 37 35  1  0  0  0  0
 37 38  1  0  0  0  0
 39 37  1  0  0  0  0
 39 40  1  0  0  0  0
 41 39  1  0  0  0  0
 41 31  1  0  0  0  0
 42 39  1  0  0  0  0
 43 42  1  0  0  0  0
 44 37  1  0  0  0  0
 45 35  1  0  0  0  0
 46 33  1  0  0  0  0
 47 21  1  0  0  0  0
 48  1  1  0  0  0  0
 48 49  1  0  0  0  0
 50 48  1  0  0  0  0
 51 48  1  0  0  0  0
 51 52  1  0  0  0  0
 53 51  1  0  0  0  0
 54 51  1  0  0  0  0
 54 55  1  0  0  0  0
 56 54  1  0  0  0  0
 57 54  1  0  0  0  0
 57 58  1  0  0  0  0
 59 57  1  0  0  0  0
 59  1  1  0  0  0  0
 60 57  1  0  0  0  0
 61 60  1  0  0  0  0
 12 62  1  0  0  0  0
 12 63  1  0  0  0  0
 13 64  1  0  0  0  0
 13 65  1  0  0  0  0
 16 66  1  0  0  0  0
 16 67  1  0  0  0  0
 17 68  1  0  0  0  0
 28 69  1  0  0  0  0
 28 70  1  0  0  0  0
 29 71  1  0  0  0  0
 42 72  1  0  0  0  0
 42 73  1  0  0  0  0
 43 74  1  0  0  0  0
 43 75  1  0  0  0  0
 44 76  1  0  0  0  0
 45 77  1  0  0  0  0
 46 78  1  0  0  0  0
 46 79  1  0  0  0  0
 47 80  1  0  0  0  0
 50 81  1  0  0  0  0
 50 82  1  0  0  0  0
 53 83  1  0  0  0  0
 56 84  1  0  0  0  0
 60 85  1  0  0  0  0
 60 86  1  0  0  0  0
 61 87  1  0  0  0  0
 61 88  1  0  0  0  0
M  END
>  <energy>
131.02307953125739

$$$$
