4NFO_SPM_C_101
  1228              3D

 40 39  0  0  0  0  0  0  0  0999 V2000
   -4.3327    1.5993   -2.0341 N   0  0  0  0  0  0  0  0  0  0  0  0
   -4.1540    0.4340   -1.1747 C   0  0  0  0  0  0  0  0  0  0  0  0
   -3.5376   -0.7203   -1.9664 C   0  0  0  0  0  0  0  0  0  0  0  0
   -2.0120   -0.6004   -2.0827 C   0  0  0  0  0  0  0  0  0  0  0  0
   -1.5733   -1.0257   -3.4133 N   0  0  0  0  0  0  0  0  0  0  0  0
   -0.1133   -1.0564   -3.4969 C   0  0  0  0  0  0  0  0  0  0  0  0
    0.3519   -1.5683   -4.8628 C   0  0  0  0  0  0  0  0  0  0  0  0
   -0.1126   -2.9986   -5.1724 C   0  0  0  0  0  0  0  0  0  0  0  0
    0.9380   -3.7953   -5.9524 C   0  0  0  0  0  0  0  0  0  0  0  0
    1.9569   -4.3086   -5.0352 N   0  0  0  0  0  0  0  0  0  0  0  0
    3.1604   -4.7378   -5.7508 C   0  0  0  0  0  0  0  0  0  0  0  0
    4.0816   -5.4991   -4.7917 C   0  0  0  0  0  0  0  0  0  0  0  0
    5.4110   -5.8932   -5.4373 C   0  0  0  0  0  0  0  0  0  0  0  0
    6.3372   -4.7665   -5.4464 N   0  0  0  0  0  0  0  0  0  0  0  0
   -4.8658    2.3103   -1.5361 H   0  0  0  0  0  0  0  0  0  0  0  0
   -3.4238    2.0158   -2.2340 H   0  0  0  0  0  0  0  0  0  0  0  0
   -5.1309    0.1280   -0.7839 H   0  0  0  0  0  0  0  0  0  0  0  0
   -3.5309    0.6959   -0.3119 H   0  0  0  0  0  0  0  0  0  0  0  0
   -4.0149   -0.7883   -2.9533 H   0  0  0  0  0  0  0  0  0  0  0  0
   -3.7777   -1.6607   -1.4532 H   0  0  0  0  0  0  0  0  0  0  0  0
   -1.6826    0.4294   -1.9017 H   0  0  0  0  0  0  0  0  0  0  0  0
   -1.5507   -1.2296   -1.3115 H   0  0  0  0  0  0  0  0  0  0  0  0
   -1.9318   -0.3692   -4.1071 H   0  0  0  0  0  0  0  0  0  0  0  0
    0.2870   -0.0454   -3.3507 H   0  0  0  0  0  0  0  0  0  0  0  0
    0.3085   -1.6915   -2.7090 H   0  0  0  0  0  0  0  0  0  0  0  0
    1.4475   -1.5098   -4.8851 H   0  0  0  0  0  0  0  0  0  0  0  0
   -0.0039   -0.8931   -5.6516 H   0  0  0  0  0  0  0  0  0  0  0  0
   -1.0245   -2.9444   -5.7805 H   0  0  0  0  0  0  0  0  0  0  0  0
   -0.3899   -3.5351   -4.2564 H   0  0  0  0  0  0  0  0  0  0  0  0
    0.4455   -4.6351   -6.4578 H   0  0  0  0  0  0  0  0  0  0  0  0
    1.3821   -3.1629   -6.7312 H   0  0  0  0  0  0  0  0  0  0  0  0
    1.5679   -5.0952   -4.5154 H   0  0  0  0  0  0  0  0  0  0  0  0
    3.6775   -3.8562   -6.1461 H   0  0  0  0  0  0  0  0  0  0  0  0
    2.8957   -5.3830   -6.5966 H   0  0  0  0  0  0  0  0  0  0  0  0
    3.5785   -6.4180   -4.4648 H   0  0  0  0  0  0  0  0  0  0  0  0
    4.2657   -4.9050   -3.8866 H   0  0  0  0  0  0  0  0  0  0  0  0
    5.2592   -6.2620   -6.4582 H   0  0  0  0  0  0  0  0  0  0  0  0
    5.8594   -6.7128   -4.8641 H   0  0  0  0  0  0  0  0  0  0  0  0
    7.2927   -5.1138   -5.5225 H   0  0  0  0  0  0  0  0  0  0  0  0
    6.1771   -4.2012   -6.2794 H   0  0  0  0  0  0  0  0  0  0  0  0
  2  1  1  0  0  0  0
  3  2  1  0  0  0  0
  4  3  1  0  0  0  0
  5  4  1  0  0  0  0
  6  5  1  0  0  0  0
  7  6  1  0  0  0  0
  8  7  1  0  0  0  0
  9  8  1  0  0  0  0
 10  9  1  0  0  0  0
 11 10  1  0  0  0  0
 12 11  1  0  0  0  0
 13 12  1  0  0  0  0
 14 13  1  0  0  0  0
  1 15  1  0  0  0  0
  1 16  1  0  0  0  0
  2 17  1  0  0  0  0
  2 18  1  0  0  0  0
  3 19  1  0  0  0  0
  3 20  1  0  0  0  0
  4 21  1  0  0  0  0
  4 22  1  0  0  0  0
  5 23  1  0  0  0  0
  6 24  1  0  0  0  0
  6 25  1  0  0  0  0
  7 26  1  0  0  0  0
  7 27  1  0  0  0  0
  8 28  1  0  0  0  0
  8 29  1  0  0  0  0
  9 30  1  0  0  0  0
  9 31  1  0  0  0  0
 10 32  1  0  0  0  0
 11 33  1  0  0  0  0
 11 34  1  0  0  0  0
 12 35  1  0  0  0  0
 12 36  1  0  0  0  0
 13 37  1  0  0  0  0
 13 38  1  0  0  0  0
 14 39  1  0  0  0  0
 14 40  1  0  0  0  0
M  END
>  <energy>
-3.0034886603445337

$$$$
