2BEE_JS4_A_50
  1228              3D

106109  0  0  0  0  0  0  0  0999 V2000
   -3.0976   -6.3435    3.0902 C   0  0  0  0  0  0  0  0  0  0  0  0
   -3.2007   -7.1120    2.3119 H   0  0  0  0  0  0  0  0  0  0  0  0
   -1.8793   -5.6356    2.8267 O   0  0  0  0  0  0  0  0  0  0  0  0
   -0.6548   -6.3189    3.1665 C   0  0  0  0  0  0  0  0  0  0  0  0
   -0.9250   -7.2610    3.6785 H   0  0  0  0  0  0  0  0  0  0  0  0
    0.1970   -5.3769    4.1266 C   0  0  0  0  0  0  0  0  0  0  0  0
   -0.4094   -4.4762    4.3228 H   0  0  0  0  0  0  0  0  0  0  0  0
    1.6140   -4.8681    3.6203 C   0  0  0  0  0  0  0  0  0  0  0  0
    2.4426   -5.5790    2.4548 C   0  0  0  0  0  0  0  0  0  0  0  0
    2.5714   -4.8004    1.6914 H   0  0  0  0  0  0  0  0  0  0  0  0
    3.7961   -5.9290    2.8974 N   0  0  0  0  0  0  0  0  0  0  0  0
    1.7738   -6.7859    1.6822 C   0  0  0  0  0  0  0  0  0  0  0  0
    2.2071   -7.7532    2.0187 H   0  0  0  0  0  0  0  0  0  0  0  0
    0.2405   -6.6716    1.9350 C   0  0  0  0  0  0  0  0  0  0  0  0
    0.7532   -7.0299    2.8520 H   0  0  0  0  0  0  0  0  0  0  0  0
    0.1190   -5.3559    1.3274 O   0  0  0  0  0  0  0  0  0  0  0  0
   -0.4046   -5.3468   -0.0083 C   0  0  0  0  0  0  0  0  0  0  0  0
   -0.7680   -6.3419   -0.2908 H   0  0  0  0  0  0  0  0  0  0  0  0
   -1.4727   -4.2669   -0.0793 C   0  0  0  0  0  0  0  0  0  0  0  0
   -2.0707   -4.2263    0.8369 H   0  0  0  0  0  0  0  0  0  0  0  0
   -2.4160   -4.3616   -1.1406 O   0  0  0  0  0  0  0  0  0  0  0  0
   -2.1134   -5.0158   -2.3646 C   0  0  0  0  0  0  0  0  0  0  0  0
   -2.6932   -6.4291   -2.4019 C   0  0  0  0  0  0  0  0  0  0  0  0
   -4.1591   -6.4587   -2.4788 N   0  0  0  0  0  0  0  0  0  0  0  0
   -4.7304   -6.7447   -1.1610 C   0  0  0  0  0  0  0  0  0  0  0  0
   -6.2503   -6.9155   -1.2200 C   0  0  0  0  0  0  0  0  0  0  0  0
   -6.7330   -8.0284   -0.2824 C   0  0  0  0  0  0  0  0  0  0  0  0
   -6.9041   -7.5604    1.0918 N   0  0  0  0  0  0  0  0  0  0  0  0
   -0.5130   -3.0675   -0.0699 C   0  0  0  0  0  0  0  0  0  0  0  0
   -0.0313   -3.0886    0.9195 H   0  0  0  0  0  0  0  0  0  0  0  0
    0.5353   -3.4840   -1.0840 C   0  0  0  0  0  0  0  0  0  0  0  0
    0.2005   -3.2666   -2.1026 H   0  0  0  0  0  0  0  0  0  0  0  0
    0.6204   -4.9139   -0.9333 O   0  0  0  0  0  0  0  0  0  0  0  0
    1.9090   -2.8590   -0.8905 C   0  0  0  0  0  0  0  0  0  0  0  0
    1.9383   -1.5888   -1.5443 O   0  0  0  0  0  0  0  0  0  0  0  0
   -0.9454   -1.7363   -0.1618 O   0  0  0  0  0  0  0  0  0  0  0  0
   -2.0174   -1.4071   -1.0193 C   0  0  0  0  0  0  0  0  0  0  0  0
   -2.3706   -2.2864   -1.5470 H   0  0  0  0  0  0  0  0  0  0  0  0
   -1.5411   -0.3844   -2.0668 C   0  0  0  0  0  0  0  0  0  0  0  0
   -0.6636   -0.7947   -2.5797 H   0  0  0  0  0  0  0  0  0  0  0  0
   -1.0929    0.8554   -1.4211 N   0  0  0  0  0  0  0  0  0  0  0  0
   -2.6981   -0.0904   -3.0531 C   0  0  0  0  0  0  0  0  0  0  0  0
   -2.7959    0.9680   -3.3321 H   0  0  0  0  0  0  0  0  0  0  0  0
   -2.3751   -0.7813   -4.2683 O   0  0  0  0  0  0  0  0  0  0  0  0
   -4.0426   -0.6438   -2.5376 C   0  0  0  0  0  0  0  0  0  0  0  0
   -4.0668   -1.7311   -2.7022 H   0  0  0  0  0  0  0  0  0  0  0  0
   -5.1192   -0.0711   -3.2744 O   0  0  0  0  0  0  0  0  0  0  0  0
   -4.2314   -0.4184   -1.0291 C   0  0  0  0  0  0  0  0  0  0  0  0
   -5.0795   -1.0401   -0.7237 H   0  0  0  0  0  0  0  0  0  0  0  0
   -3.0965   -0.8565   -0.2613 O   0  0  0  0  0  0  0  0  0  0  0  0
   -4.5802    1.0326   -0.6704 C   0  0  0  0  0  0  0  0  0  0  0  0
   -4.5891    1.2752    0.7673 N   0  0  0  0  0  0  0  0  0  0  0  0
    2.0478   -6.7664    0.2885 O   0  0  0  0  0  0  0  0  0  0  0  0
    0.3740   -6.0489    5.4229 N   0  0  0  0  0  0  0  0  0  0  0  0
   -4.3225   -5.3850    3.0195 C   0  0  0  0  0  0  0  0  0  0  0  0
   -5.2328   -5.9933    3.1499 H   0  0  0  0  0  0  0  0  0  0  0  0
   -4.4151   -4.7099    1.7296 N   0  0  0  0  0  0  0  0  0  0  0  0
   -4.2853   -4.3797    4.1838 C   0  0  0  0  0  0  0  0  0  0  0  0
   -3.4029   -3.7264    4.1065 H   0  0  0  0  0  0  0  0  0  0  0  0
   -5.4648   -3.5716    4.1662 O   0  0  0  0  0  0  0  0  0  0  0  0
   -4.2447   -5.1538    5.5053 C   0  0  0  0  0  0  0  0  0  0  0  0
   -5.1792   -5.7027    5.6745 H   0  0  0  0  0  0  0  0  0  0  0  0
   -4.0913   -4.2186    6.5701 O   0  0  0  0  0  0  0  0  0  0  0  0
   -3.0568   -6.1143    5.4942 C   0  0  0  0  0  0  0  0  0  0  0  0
   -2.1492   -5.5127    5.4226 H   0  0  0  0  0  0  0  0  0  0  0  0
   -3.1534   -7.0048    4.3681 O   0  0  0  0  0  0  0  0  0  0  0  0
   -2.9689   -6.9757    6.7598 C   0  0  0  0  0  0  0  0  0  0  0  0
   -4.0863   -7.8550    6.8507 O   0  0  0  0  0  0  0  0  0  0  0  0
    1.4328   -3.8518    3.2397 H   0  0  0  0  0  0  0  0  0  0  0  0
    2.2539   -4.6728    4.4971 H   0  0  0  0  0  0  0  0  0  0  0  0
    3.8309   -6.0309    3.9110 H   0  0  0  0  0  0  0  0  0  0  0  0
    4.4486   -5.1794    2.6720 H   0  0  0  0  0  0  0  0  0  0  0  0
   -2.5601   -4.4202   -3.1666 H   0  0  0  0  0  0  0  0  0  0  0  0
   -1.0486   -5.0483   -2.5842 H   0  0  0  0  0  0  0  0  0  0  0  0
   -2.3336   -7.0096   -1.5475 H   0  0  0  0  0  0  0  0  0  0  0  0
   -2.3159   -6.9398   -3.2942 H   0  0  0  0  0  0  0  0  0  0  0  0
   -4.5002   -5.5583   -2.8116 H   0  0  0  0  0  0  0  0  0  0  0  0
   -4.2529   -7.6326   -0.7285 H   0  0  0  0  0  0  0  0  0  0  0  0
   -4.4868   -5.9051   -0.5133 H   0  0  0  0  0  0  0  0  0  0  0  0
   -6.7316   -5.9637   -0.9605 H   0  0  0  0  0  0  0  0  0  0  0  0
   -6.5817   -7.1565   -2.2381 H   0  0  0  0  0  0  0  0  0  0  0  0
   -7.6908   -8.4184   -0.6426 H   0  0  0  0  0  0  0  0  0  0  0  0
   -6.0284   -8.8717   -0.2852 H   0  0  0  0  0  0  0  0  0  0  0  0
   -7.3684   -6.6484    1.0958 H   0  0  0  0  0  0  0  0  0  0  0  0
   -5.9930   -7.4246    1.5197 H   0  0  0  0  0  0  0  0  0  0  0  0
    2.1543   -2.7169    0.1683 H   0  0  0  0  0  0  0  0  0  0  0  0
    2.6895   -3.4971   -1.3276 H   0  0  0  0  0  0  0  0  0  0  0  0
    2.0698   -1.7486   -2.4909 H   0  0  0  0  0  0  0  0  0  0  0  0
   -1.6163    0.9967   -0.5604 H   0  0  0  0  0  0  0  0  0  0  0  0
   -0.1213    0.7654   -1.1226 H   0  0  0  0  0  0  0  0  0  0  0  0
   -2.7739   -0.3023   -5.0111 H   0  0  0  0  0  0  0  0  0  0  0  0
   -5.3496   -0.6774   -4.0061 H   0  0  0  0  0  0  0  0  0  0  0  0
   -5.5847    1.2750   -1.0246 H   0  0  0  0  0  0  0  0  0  0  0  0
   -3.8996    1.7320   -1.1639 H   0  0  0  0  0  0  0  0  0  0  0  0
   -4.4838    2.2786    0.9253 H   0  0  0  0  0  0  0  0  0  0  0  0
   -3.7780    0.8245    1.1827 H   0  0  0  0  0  0  0  0  0  0  0  0
    1.4590   -7.4445   -0.1141 H   0  0  0  0  0  0  0  0  0  0  0  0
    1.2358   -6.6047    5.4172 H   0  0  0  0  0  0  0  0  0  0  0  0
    0.4859   -5.3524    6.1482 H   0  0  0  0  0  0  0  0  0  0  0  0
   -5.2227   -5.0572    1.2168 H   0  0  0  0  0  0  0  0  0  0  0  0
   -4.5738   -3.7101    1.8473 H   0  0  0  0  0  0  0  0  0  0  0  0
   -5.2002   -2.6475    4.1167 H   0  0  0  0  0  0  0  0  0  0  0  0
   -4.8477   -3.6067    6.5250 H   0  0  0  0  0  0  0  0  0  0  0  0
   -2.0518   -7.5780    6.7518 H   0  0  0  0  0  0  0  0  0  0  0  0
   -2.9476   -6.3553    7.6632 H   0  0  0  0  0  0  0  0  0  0  0  0
   -3.7920   -8.6692    7.2937 H   0  0  0  0  0  0  0  0  0  0  0  0
  1  2  1  0  0  0  0
  3  1  1  0  0  0  0
  4  3  1  0  0  0  0
  4  5  1  0  0  0  0
  6  4  1  0  0  0  0
  6  7  1  0  0  0  0
  8  6  1  0  0  0  0
  9  8  1  0  0  0  0
  9 10  1  0  0  0  0
 11  9  1  0  0  0  0
 12  9  1  0  0  0  0
 12 13  1  0  0  0  0
 14 12  1  0  0  0  0
 14 15  1  0  0  0  0
 14  4  1  0  0  0  0
 16 14  1  0  0  0  0
 17 16  1  0  0  0  0
 17 18  1  0  0  0  0
 19 17  1  0  0  0  0
 19 20  1  0  0  0  0
 21 19  1  0  0  0  0
 22 21  1  0  0  0  0
 23 22  1  0  0  0  0
 24 23  1  0  0  0  0
 25 24  1  0  0  0  0
 26 25  1  0  0  0  0
 27 26  1  0  0  0  0
 28 27  1  0  0  0  0
 29 19  1  0  0  0  0
 29 30  1  0  0  0  0
 31 29  1  0  0  0  0
 31 32  1  0  0  0  0
 33 31  1  0  0  0  0
 33 17  1  0  0  0  0
 34 31  1  0  0  0  0
 35 34  1  0  0  0  0
 36 29  1  0  0  0  0
 37 36  1  0  0  0  0
 37 38  1  0  0  0  0
 39 37  1  0  0  0  0
 39 40  1  0  0  0  0
 41 39  1  0  0  0  0
 42 39  1  0  0  0  0
 42 43  1  0  0  0  0
 44 42  1  0  0  0  0
 45 42  1  0  0  0  0
 45 46  1  0  0  0  0
 47 45  1  0  0  0  0
 48 45  1  0  0  0  0
 48 49  1  0  0  0  0
 50 48  1  0  0  0  0
 50 37  1  0  0  0  0
 51 48  1  0  0  0  0
 52 51  1  0  0  0  0
 53 12  1  0  0  0  0
 54  6  1  0  0  0  0
 55  1  1  0  0  0  0
 55 56  1  0  0  0  0
 57 55  1  0  0  0  0
 58 55  1  0  0  0  0
 58 59  1  0  0  0  0
 60 58  1  0  0  0  0
 61 58  1  0  0  0  0
 61 62  1  0  0  0  0
 63 61  1  0  0  0  0
 64 61  1  0  0  0  0
 64 65  1  0  0  0  0
 66 64  1  0  0  0  0
 66  1  1  0  0  0  0
 67 64  1  0  0  0  0
 68 67  1  0  0  0  0
  8 69  1  0  0  0  0
  8 70  1  0  0  0  0
 11 71  1  0  0  0  0
 11 72  1  0  0  0  0
 22 73  1  0  0  0  0
 22 74  1  0  0  0  0
 23 75  1  0  0  0  0
 23 76  1  0  0  0  0
 24 77  1  0  0  0  0
 25 78  1  0  0  0  0
 25 79  1  0  0  0  0
 26 80  1  0  0  0  0
 26 81  1  0  0  0  0
 27 82  1  0  0  0  0
 27 83  1  0  0  0  0
 28 84  1  0  0  0  0
 28 85  1  0  0  0  0
 34 86  1  0  0  0  0
 34 87  1  0  0  0  0
 35 88  1  0  0  0  0
 41 89  1  0  0  0  0
 41 90  1  0  0  0  0
 44 91  1  0  0  0  0
 47 92  1  0  0  0  0
 51 93  1  0  0  0  0
 51 94  1  0  0  0  0
 52 95  1  0  0  0  0
 52 96  1  0  0  0  0
 53 97  1  0  0  0  0
 54 98  1  0  0  0  0
 54 99  1  0  0  0  0
 57100  1  0  0  0  0
 57101  1  0  0  0  0
 60102  1  0  0  0  0
 63103  1  0  0  0  0
 67104  1  0  0  0  0
 67105  1  0  0  0  0
 68106  1  0  0  0  0
M  END
>  <energy>
292.19528782720425

$$$$
