1FYP_PAR_A_28
  1228              3D

 87 90  0  0  0  0  0  0  0  0999 V2000
    1.8279   17.8965    6.4742 C   0  0  0  0  0  0  0  0  0  0  0  0
    1.3961   16.9461    6.1647 H   0  0  0  0  0  0  0  0  0  0  0  0
    3.1756   18.0192    6.0110 O   0  0  0  0  0  0  0  0  0  0  0  0
    3.6640   17.0832    5.0371 C   0  0  0  0  0  0  0  0  0  0  0  0
    4.7543   17.2205    5.0661 H   0  0  0  0  0  0  0  0  0  0  0  0
    3.2179   17.4585    3.6124 C   0  0  0  0  0  0  0  0  0  0  0  0
    2.1244   17.4130    3.5552 H   0  0  0  0  0  0  0  0  0  0  0  0
    3.8216   16.4832    2.5850 C   0  0  0  0  0  0  0  0  0  0  0  0
    3.4338   15.0294    2.8846 C   0  0  0  0  0  0  0  0  0  0  0  0
    2.3460   14.9208    2.8250 H   0  0  0  0  0  0  0  0  0  0  0  0
    4.0285   14.1339    1.8894 N   0  0  0  0  0  0  0  0  0  0  0  0
    3.9077   14.6226    4.2832 C   0  0  0  0  0  0  0  0  0  0  0  0
    4.9985   14.5543    4.3026 H   0  0  0  0  0  0  0  0  0  0  0  0
    3.3810   15.5938    5.3582 C   0  0  0  0  0  0  0  0  0  0  0  0
    2.2975   15.4289    5.3799 H   0  0  0  0  0  0  0  0  0  0  0  0
    3.8236   15.2541    6.6823 O   0  0  0  0  0  0  0  0  0  0  0  0
    5.2317   15.1929    6.8521 C   0  0  0  0  0  0  0  0  0  0  0  0
    5.7565   15.6232    5.9926 H   0  0  0  0  0  0  0  0  0  0  0  0
    5.6512   15.9294    8.1142 C   0  0  0  0  0  0  0  0  0  0  0  0
    4.9871   15.6662    8.9470 H   0  0  0  0  0  0  0  0  0  0  0  0
    5.6405   17.3318    7.9325 O   0  0  0  0  0  0  0  0  0  0  0  0
    7.0575   15.3611    8.2901 C   0  0  0  0  0  0  0  0  0  0  0  0
    7.4492   15.5526    9.2936 H   0  0  0  0  0  0  0  0  0  0  0  0
    7.8844   16.0632    7.3510 O   0  0  0  0  0  0  0  0  0  0  0  0
    8.8612   15.3194    6.6159 C   0  0  0  0  0  0  0  0  0  0  0  0
    9.3260   14.5743    7.2741 H   0  0  0  0  0  0  0  0  0  0  0  0
    9.9637   16.2961    6.1349 C   0  0  0  0  0  0  0  0  0  0  0  0
   10.8473   15.7164    5.8302 H   0  0  0  0  0  0  0  0  0  0  0  0
   10.3914   17.1834    7.2235 N   0  0  0  0  0  0  0  0  0  0  0  0
    9.4598   17.1165    4.9383 C   0  0  0  0  0  0  0  0  0  0  0  0
    8.7235   17.8586    5.2749 H   0  0  0  0  0  0  0  0  0  0  0  0
   10.5615   17.8314    4.3765 O   0  0  0  0  0  0  0  0  0  0  0  0
    8.8804   16.2165    3.8382 C   0  0  0  0  0  0  0  0  0  0  0  0
    9.4699   16.2953    2.9157 H   0  0  0  0  0  0  0  0  0  0  0  0
    7.5780   16.6984    3.5092 O   0  0  0  0  0  0  0  0  0  0  0  0
    8.8331   14.7368    4.2612 C   0  0  0  0  0  0  0  0  0  0  0  0
    9.8489   14.3306    4.3475 H   0  0  0  0  0  0  0  0  0  0  0  0
    8.2094   14.6312    5.5369 O   0  0  0  0  0  0  0  0  0  0  0  0
    8.0542   13.8709    3.2596 C   0  0  0  0  0  0  0  0  0  0  0  0
    7.8490   12.5208    3.7793 N   0  0  0  0  0  0  0  0  0  0  0  0
    6.7690   13.8732    8.0123 C   0  0  0  0  0  0  0  0  0  0  0  0
    7.6172   13.3377    7.5892 H   0  0  0  0  0  0  0  0  0  0  0  0
    5.7115   13.8455    7.0279 O   0  0  0  0  0  0  0  0  0  0  0  0
    6.3058   13.0936    9.2436 C   0  0  0  0  0  0  0  0  0  0  0  0
    7.3493   13.0557   10.2100 O   0  0  0  0  0  0  0  0  0  0  0  0
    3.3943   13.3195    4.5931 O   0  0  0  0  0  0  0  0  0  0  0  0
    3.6324   18.8281    3.3081 N   0  0  0  0  0  0  0  0  0  0  0  0
    0.9538   19.0449    5.9430 C   0  0  0  0  0  0  0  0  0  0  0  0
    0.8952   18.9665    4.8502 H   0  0  0  0  0  0  0  0  0  0  0  0
    1.5520   20.3479    6.2546 N   0  0  0  0  0  0  0  0  0  0  0  0
   -0.4609   18.9738    6.5498 C   0  0  0  0  0  0  0  0  0  0  0  0
   -0.7180   19.8987    7.0805 H   0  0  0  0  0  0  0  0  0  0  0  0
   -1.4268   18.8407    5.5015 O   0  0  0  0  0  0  0  0  0  0  0  0
   -0.6416   17.7842    7.4966 C   0  0  0  0  0  0  0  0  0  0  0  0
   -0.7572   16.8622    6.9150 H   0  0  0  0  0  0  0  0  0  0  0  0
   -1.8509   17.9642    8.2398 O   0  0  0  0  0  0  0  0  0  0  0  0
    0.5255   17.6439    8.4911 C   0  0  0  0  0  0  0  0  0  0  0  0
    0.3929   18.3447    9.3247 H   0  0  0  0  0  0  0  0  0  0  0  0
    1.8021   17.9534    7.9084 O   0  0  0  0  0  0  0  0  0  0  0  0
    0.6280   16.2218    9.0559 C   0  0  0  0  0  0  0  0  0  0  0  0
   -0.4235   15.9908    9.9852 O   0  0  0  0  0  0  0  0  0  0  0  0
    4.9150   16.5844    2.5793 H   0  0  0  0  0  0  0  0  0  0  0  0
    3.4858   16.7576    1.5795 H   0  0  0  0  0  0  0  0  0  0  0  0
    5.0088   14.3707    1.7392 H   0  0  0  0  0  0  0  0  0  0  0  0
    3.5661   14.2616    0.9925 H   0  0  0  0  0  0  0  0  0  0  0  0
    5.6012   17.7363    8.8156 H   0  0  0  0  0  0  0  0  0  0  0  0
   11.1124   17.8220    6.8906 H   0  0  0  0  0  0  0  0  0  0  0  0
   10.8351   16.6210    7.9530 H   0  0  0  0  0  0  0  0  0  0  0  0
   10.4268   18.7747    4.5703 H   0  0  0  0  0  0  0  0  0  0  0  0
    7.0021   16.5515    4.2791 H   0  0  0  0  0  0  0  0  0  0  0  0
    8.6150   13.8121    2.3197 H   0  0  0  0  0  0  0  0  0  0  0  0
    7.0794   14.3109    3.0222 H   0  0  0  0  0  0  0  0  0  0  0  0
    8.2549   11.8402    3.1390 H   0  0  0  0  0  0  0  0  0  0  0  0
    6.8508   12.3189    3.8102 H   0  0  0  0  0  0  0  0  0  0  0  0
    5.4257   13.5427    9.7119 H   0  0  0  0  0  0  0  0  0  0  0  0
    6.0616   12.0638    8.9709 H   0  0  0  0  0  0  0  0  0  0  0  0
    8.0294   12.4498    9.8702 H   0  0  0  0  0  0  0  0  0  0  0  0
    3.8849   12.9883    5.3650 H   0  0  0  0  0  0  0  0  0  0  0  0
    3.4536   19.0382    2.3265 H   0  0  0  0  0  0  0  0  0  0  0  0
    4.6399   18.9217    3.4425 H   0  0  0  0  0  0  0  0  0  0  0  0
    2.4885   20.3882    5.8578 H   0  0  0  0  0  0  0  0  0  0  0  0
    1.0216   21.0784    5.7845 H   0  0  0  0  0  0  0  0  0  0  0  0
   -1.3951   19.6535    4.9691 H   0  0  0  0  0  0  0  0  0  0  0  0
   -2.5062   17.3458    7.8762 H   0  0  0  0  0  0  0  0  0  0  0  0
    0.5559   15.4730    8.2597 H   0  0  0  0  0  0  0  0  0  0  0  0
    1.5873   16.0747    9.5709 H   0  0  0  0  0  0  0  0  0  0  0  0
   -0.0755   16.1822   10.8733 H   0  0  0  0  0  0  0  0  0  0  0  0
  1 48  1  0  0  0  0
  1 59  1  0  0  0  0
  1  3  1  0  0  0  0
  1  2  1  0  0  0  0
  4  6  1  0  0  0  0
  4  5  1  0  0  0  0
  4  3  1  0  0  0  0
  6  7  1  0  0  0  0
  6  8  1  0  0  0  0
  6 47  1  0  0  0  0
  8  9  1  0  0  0  0
  8 62  1  0  0  0  0
  8 63  1  0  0  0  0
  9 12  1  0  0  0  0
  9 11  1  0  0  0  0
  9 10  1  0  0  0  0
 11 64  1  0  0  0  0
 11 65  1  0  0  0  0
 12 13  1  0  0  0  0
 12 14  1  0  0  0  0
 12 46  1  0  0  0  0
 14  4  1  0  0  0  0
 14 16  1  0  0  0  0
 14 15  1  0  0  0  0
 16 17  1  0  0  0  0
 17 18  1  0  0  0  0
 17 19  1  0  0  0  0
 17 43  1  0  0  0  0
 19 22  1  0  0  0  0
 19 21  1  0  0  0  0
 19 20  1  0  0  0  0
 21 66  1  0  0  0  0
 22 23  1  0  0  0  0
 22 24  1  0  0  0  0
 22 41  1  0  0  0  0
 25 27  1  0  0  0  0
 25 38  1  0  0  0  0
 25 26  1  0  0  0  0
 25 24  1  0  0  0  0
 27 30  1  0  0  0  0
 27 29  1  0  0  0  0
 27 28  1  0  0  0  0
 29 67  1  0  0  0  0
 29 68  1  0  0  0  0
 30 32  1  0  0  0  0
 30 31  1  0  0  0  0
 32 69  1  0  0  0  0
 33 30  1  0  0  0  0
 33 34  1  0  0  0  0
 33 35  1  0  0  0  0
 35 70  1  0  0  0  0
 36 33  1  0  0  0  0
 36 37  1  0  0  0  0
 36 38  1  0  0  0  0
 36 39  1  0  0  0  0
 39 40  1  0  0  0  0
 39 71  1  0  0  0  0
 39 72  1  0  0  0  0
 40 73  1  0  0  0  0
 40 74  1  0  0  0  0
 41 43  1  0  0  0  0
 41 44  1  0  0  0  0
 41 42  1  0  0  0  0
 44 45  1  0  0  0  0
 44 75  1  0  0  0  0
 44 76  1  0  0  0  0
 45 77  1  0  0  0  0
 46 78  1  0  0  0  0
 47 79  1  0  0  0  0
 47 80  1  0  0  0  0
 48 51  1  0  0  0  0
 48 50  1  0  0  0  0
 48 49  1  0  0  0  0
 50 81  1  0  0  0  0
 50 82  1  0  0  0  0
 51 54  1  0  0  0  0
 51 53  1  0  0  0  0
 51 52  1  0  0  0  0
 53 83  1  0  0  0  0
 54 55  1  0  0  0  0
 54 56  1  0  0  0  0
 54 57  1  0  0  0  0
 56 84  1  0  0  0  0
 57 59  1  0  0  0  0
 57 60  1  0  0  0  0
 57 58  1  0  0  0  0
 60 61  1  0  0  0  0
 60 85  1  0  0  0  0
 60 86  1  0  0  0  0
 61 87  1  0  0  0  0
M  END
>  <energy>
139.51102388480405

$$$$
