2FCX_XXX_A_101
  1228              3D

 48 49  0  0  0  0  0  0  0  0999 V2000
   -1.2943    2.1469   -1.5985 O   0  0  0  0  0  0  0  0  0  0  0  0
   -0.9967    0.7934   -1.2587 C   0  0  0  0  0  0  0  0  0  0  0  0
   -0.0359    0.5268   -1.7214 H   0  0  0  0  0  0  0  0  0  0  0  0
   -2.1040   -0.0828   -1.8395 C   0  0  0  0  0  0  0  0  0  0  0  0
   -3.0991    0.3036   -1.5967 H   0  0  0  0  0  0  0  0  0  0  0  0
   -1.9892   -0.0117   -3.2660 O   0  0  0  0  0  0  0  0  0  0  0  0
   -1.9643   -1.5480   -1.3975 C   0  0  0  0  0  0  0  0  0  0  0  0
   -1.0584   -1.9729   -1.8429 H   0  0  0  0  0  0  0  0  0  0  0  0
   -3.0964   -2.3518   -1.8580 N   0  0  0  0  0  0  0  0  0  0  0  0
   -1.8587   -1.6647    0.1291 C   0  0  0  0  0  0  0  0  0  0  0  0
   -0.7032   -0.8042    0.6620 C   0  0  0  0  0  0  0  0  0  0  0  0
    0.2468   -1.1545    0.2354 H   0  0  0  0  0  0  0  0  0  0  0  0
   -0.6254   -0.9135    2.1230 N   0  0  0  0  0  0  0  0  0  0  0  0
   -0.9050    0.6711    0.2628 C   0  0  0  0  0  0  0  0  0  0  0  0
   -1.8363    1.0349    0.7027 H   0  0  0  0  0  0  0  0  0  0  0  0
    0.2346    1.4108    0.7214 O   0  0  0  0  0  0  0  0  0  0  0  0
   -0.0027    2.7045    1.2941 C   0  0  0  0  0  0  0  0  0  0  0  0
    0.1889    3.4140    0.4790 H   0  0  0  0  0  0  0  0  0  0  0  0
   -1.3236    2.9145    1.7903 O   0  0  0  0  0  0  0  0  0  0  0  0
   -1.6277    4.2679    2.1559 C   0  0  0  0  0  0  0  0  0  0  0  0
   -2.3128    4.1743    3.0112 H   0  0  0  0  0  0  0  0  0  0  0  0
   -2.4053    4.9675    1.0313 C   0  0  0  0  0  0  0  0  0  0  0  0
   -1.5558    5.3443   -0.0876 N   0  0  0  0  0  0  0  0  0  0  0  0
   -0.3811    5.0504    2.6102 C   0  0  0  0  0  0  0  0  0  0  0  0
    0.1539    5.4945    1.7613 H   0  0  0  0  0  0  0  0  0  0  0  0
   -0.7877    6.1499    3.4294 O   0  0  0  0  0  0  0  0  0  0  0  0
    0.5805    4.1253    3.3494 C   0  0  0  0  0  0  0  0  0  0  0  0
    0.1112    3.7603    4.2698 H   0  0  0  0  0  0  0  0  0  0  0  0
    1.7276    4.8719    3.7473 O   0  0  0  0  0  0  0  0  0  0  0  0
    1.0175    2.9595    2.4365 C   0  0  0  0  0  0  0  0  0  0  0  0
    1.9946    3.1644    1.9833 H   0  0  0  0  0  0  0  0  0  0  0  0
    1.1878    1.7455    3.2350 N   0  0  0  0  0  0  0  0  0  0  0  0
   -0.4493    2.5904   -1.7835 H   0  0  0  0  0  0  0  0  0  0  0  0
   -1.7884    0.9206   -3.4959 H   0  0  0  0  0  0  0  0  0  0  0  0
   -3.9798   -1.8766   -1.6784 H   0  0  0  0  0  0  0  0  0  0  0  0
   -3.0356   -2.4510   -2.8749 H   0  0  0  0  0  0  0  0  0  0  0  0
   -2.7958   -1.3670    0.6118 H   0  0  0  0  0  0  0  0  0  0  0  0
   -1.6877   -2.7080    0.4204 H   0  0  0  0  0  0  0  0  0  0  0  0
   -0.3688   -1.8717    2.3674 H   0  0  0  0  0  0  0  0  0  0  0  0
    0.1347   -0.3295    2.4606 H   0  0  0  0  0  0  0  0  0  0  0  0
   -3.2150    4.3184    0.6788 H   0  0  0  0  0  0  0  0  0  0  0  0
   -2.8866    5.8667    1.4391 H   0  0  0  0  0  0  0  0  0  0  0  0
   -1.5685    4.6167   -0.7996 H   0  0  0  0  0  0  0  0  0  0  0  0
   -1.8965    6.2008   -0.5210 H   0  0  0  0  0  0  0  0  0  0  0  0
   -1.1911    5.7914    4.2371 H   0  0  0  0  0  0  0  0  0  0  0  0
    1.5167    5.2817    4.6037 H   0  0  0  0  0  0  0  0  0  0  0  0
    1.8981    1.8855    3.9527 H   0  0  0  0  0  0  0  0  0  0  0  0
    0.3222    1.5199    3.7194 H   0  0  0  0  0  0  0  0  0  0  0  0
  2  1  1  0  0  0  0
  2  3  1  0  0  0  0
  4  2  1  0  0  0  0
  4  5  1  0  0  0  0
  6  4  1  0  0  0  0
  7  4  1  0  0  0  0
  7  8  1  0  0  0  0
  9  7  1  0  0  0  0
 10  7  1  0  0  0  0
 11 10  1  0  0  0  0
 11 12  1  0  0  0  0
 13 11  1  0  0  0  0
 14 11  1  0  0  0  0
 14 15  1  0  0  0  0
 14  2  1  0  0  0  0
 16 14  1  0  0  0  0
 17 16  1  0  0  0  0
 17 18  1  0  0  0  0
 19 17  1  0  0  0  0
 20 19  1  0  0  0  0
 20 21  1  0  0  0  0
 22 20  1  0  0  0  0
 23 22  1  0  0  0  0
 24 20  1  0  0  0  0
 24 25  1  0  0  0  0
 26 24  1  0  0  0  0
 27 24  1  0  0  0  0
 27 28  1  0  0  0  0
 29 27  1  0  0  0  0
 30 27  1  0  0  0  0
 30 31  1  0  0  0  0
 30 17  1  0  0  0  0
 32 30  1  0  0  0  0
  1 33  1  0  0  0  0
  6 34  1  0  0  0  0
  9 35  1  0  0  0  0
  9 36  1  0  0  0  0
 10 37  1  0  0  0  0
 10 38  1  0  0  0  0
 13 39  1  0  0  0  0
 13 40  1  0  0  0  0
 22 41  1  0  0  0  0
 22 42  1  0  0  0  0
 23 43  1  0  0  0  0
 23 44  1  0  0  0  0
 26 45  1  0  0  0  0
 29 46  1  0  0  0  0
 32 47  1  0  0  0  0
 32 48  1  0  0  0  0
M  END
>  <energy>
57.956875734579477

$$$$
