ligand.pdb
  1228              3D

 54 54  0  0  0  0  0  0  0  0999 V2000
    2.7001   -0.4741    0.3390 C   0  0  0  0  0  0  0  0  0  0  0  0
    1.8461    0.2184    1.2082 C   0  0  0  0  0  0  0  0  0  0  0  0
    1.7062    1.6025    1.0283 C   0  0  0  0  0  0  0  0  0  0  0  0
    2.3621    2.2658   -0.0096 C   0  0  0  0  0  0  0  0  0  0  0  0
    3.1443    1.5524   -0.9125 C   0  0  0  0  0  0  0  0  0  0  0  0
    3.2934    0.1756   -0.7512 C   0  0  0  0  0  0  0  0  0  0  0  0
    2.2662    3.6278   -0.1432 O   0  0  0  0  0  0  0  0  0  0  0  0
    2.6247    4.3145    1.0590 C   0  0  0  0  0  0  0  0  0  0  0  0
    1.1571   -0.4005    2.4078 C   0  0  0  0  0  0  0  0  0  0  0  0
   -0.3040   -0.2709    2.3272 N   0  0  0  0  0  0  0  0  0  0  0  0
   -0.9421    0.2058    3.5544 C   0  0  0  0  0  0  0  0  0  0  0  0
   -1.9429   -0.8525    4.0419 C   0  0  0  0  0  0  0  0  0  0  0  0
   -3.3444   -0.2906    4.3282 C   0  0  0  0  0  0  0  0  0  0  0  0
   -3.7480   -0.3309    5.8020 C   0  0  0  0  0  0  0  0  0  0  0  0
   -2.8818    0.5248    6.6032 N   0  0  0  0  0  0  0  0  0  0  0  0
   -2.0519    0.0053    7.6125 C   0  0  0  0  0  0  0  0  0  0  0  0
   -2.5304   -0.7574    8.5620 N   0  0  0  0  0  0  0  0  0  0  0  0
   -0.7348   -0.0909    7.2018 N   0  0  0  0  0  0  0  0  0  0  0  0
    2.9738   -1.8057    0.5213 O   0  0  0  0  0  0  0  0  0  0  0  0
    4.2597   -1.9731    1.1452 C   0  0  0  0  0  0  0  0  0  0  0  0
    5.2115   -2.6900    0.1835 C   0  0  0  0  0  0  0  0  0  0  0  0
    5.9267   -3.7489    0.8880 N   0  0  0  0  0  0  0  0  0  0  0  0
    5.5237   -5.0936    0.9443 C   0  0  0  0  0  0  0  0  0  0  0  0
    5.9771   -5.8601    1.9104 N   0  0  0  0  0  0  0  0  0  0  0  0
    4.3028   -5.3611    0.3560 N   0  0  0  0  0  0  0  0  0  0  0  0
    0.9249    2.1256    1.5784 H   0  0  0  0  0  0  0  0  0  0  0  0
    3.6428    2.0528   -1.7375 H   0  0  0  0  0  0  0  0  0  0  0  0
    3.9065   -0.3844   -1.4545 H   0  0  0  0  0  0  0  0  0  0  0  0
    3.5994    3.9902    1.4391 H   0  0  0  0  0  0  0  0  0  0  0  0
    1.8540    4.1831    1.8268 H   0  0  0  0  0  0  0  0  0  0  0  0
    2.6715    5.3847    0.8383 H   0  0  0  0  0  0  0  0  0  0  0  0
    1.3857   -1.4681    2.4736 H   0  0  0  0  0  0  0  0  0  0  0  0
    1.5776    0.0643    3.3091 H   0  0  0  0  0  0  0  0  0  0  0  0
   -0.5783    0.3385    1.5570 H   0  0  0  0  0  0  0  0  0  0  0  0
   -0.2240    0.4257    4.3528 H   0  0  0  0  0  0  0  0  0  0  0  0
   -1.4379    1.1593    3.3355 H   0  0  0  0  0  0  0  0  0  0  0  0
   -1.5294   -1.3432    4.9298 H   0  0  0  0  0  0  0  0  0  0  0  0
   -2.0454   -1.6613    3.3050 H   0  0  0  0  0  0  0  0  0  0  0  0
   -4.0675   -0.9040    3.7752 H   0  0  0  0  0  0  0  0  0  0  0  0
   -3.4687    0.7267    3.9397 H   0  0  0  0  0  0  0  0  0  0  0  0
   -3.7452   -1.3612    6.1677 H   0  0  0  0  0  0  0  0  0  0  0  0
   -4.7792    0.0366    5.8969 H   0  0  0  0  0  0  0  0  0  0  0  0
   -3.3321    1.4009    6.8534 H   0  0  0  0  0  0  0  0  0  0  0  0
   -3.3944   -0.3032    8.9077 H   0  0  0  0  0  0  0  0  0  0  0  0
   -0.2709   -0.9519    7.4865 H   0  0  0  0  0  0  0  0  0  0  0  0
   -0.1500    0.6959    7.4722 H   0  0  0  0  0  0  0  0  0  0  0  0
    4.0923   -2.5579    2.0572 H   0  0  0  0  0  0  0  0  0  0  0  0
    4.7096   -1.0214    1.4614 H   0  0  0  0  0  0  0  0  0  0  0  0
    5.9501   -1.9767   -0.2011 H   0  0  0  0  0  0  0  0  0  0  0  0
    4.6911   -3.0753   -0.7005 H   0  0  0  0  0  0  0  0  0  0  0  0
    6.4341   -3.4149    1.7040 H   0  0  0  0  0  0  0  0  0  0  0  0
    6.9978   -5.7086    1.9810 H   0  0  0  0  0  0  0  0  0  0  0  0
    4.3331   -5.3996   -0.6607 H   0  0  0  0  0  0  0  0  0  0  0  0
    3.5447   -4.7424    0.6383 H   0  0  0  0  0  0  0  0  0  0  0  0
  2  1  2  0  0  0  0
  3  2  1  0  0  0  0
  4  3  2  0  0  0  0
  5  4  1  0  0  0  0
  6  5  2  0  0  0  0
  6  1  1  0  0  0  0
  7  4  1  0  0  0  0
  8  7  1  0  0  0  0
  9  2  1  0  0  0  0
 10  9  1  0  0  0  0
 11 10  1  0  0  0  0
 12 11  1  0  0  0  0
 13 12  1  0  0  0  0
 14 13  1  0  0  0  0
 15 14  1  0  0  0  0
 16 15  1  0  0  0  0
 17 16  2  0  0  0  0
 18 16  1  0  0  0  0
 19  1  1  0  0  0  0
 20 19  1  0  0  0  0
 21 20  1  0  0  0  0
 22 21  1  0  0  0  0
 23 22  1  0  0  0  0
 24 23  2  0  0  0  0
 25 23  1  0  0  0  0
  3 26  1  0  0  0  0
  5 27  1  0  0  0  0
  6 28  1  0  0  0  0
  8 29  1  0  0  0  0
  8 30  1  0  0  0  0
  8 31  1  0  0  0  0
  9 32  1  0  0  0  0
  9 33  1  0  0  0  0
 10 34  1  0  0  0  0
 11 35  1  0  0  0  0
 11 36  1  0  0  0  0
 12 37  1  0  0  0  0
 12 38  1  0  0  0  0
 13 39  1  0  0  0  0
 13 40  1  0  0  0  0
 14 41  1  0  0  0  0
 14 42  1  0  0  0  0
 15 43  1  0  0  0  0
 17 44  1  0  0  0  0
 18 45  1  0  0  0  0
 18 46  1  0  0  0  0
 20 47  1  0  0  0  0
 20 48  1  0  0  0  0
 21 49  1  0  0  0  0
 21 50  1  0  0  0  0
 22 51  1  0  0  0  0
 24 52  1  0  0  0  0
 25 53  1  0  0  0  0
 25 54  1  0  0  0  0
M  END
>  <energy>
143.75449069415043

$$$$
