2KGP_MIX_A_26
  1228              3D

 60 62  0  0  0  0  0  0  0  0999 V2000
   -3.3269    2.0391   -3.3422 O   0  0  0  0  0  0  0  0  0  0  0  0
   -3.2442    0.7125   -3.8537 C   0  0  0  0  0  0  0  0  0  0  0  0
   -2.5756   -0.1713   -2.8105 C   0  0  0  0  0  0  0  0  0  0  0  0
   -2.2714   -1.5079   -3.3334 N   0  0  0  0  0  0  0  0  0  0  0  0
   -2.5084   -2.5910   -2.3700 C   0  0  0  0  0  0  0  0  0  0  0  0
   -1.8855   -2.3711   -0.9858 C   0  0  0  0  0  0  0  0  0  0  0  0
   -0.7915   -3.3000   -0.6698 N   0  0  0  0  0  0  0  0  0  0  0  0
    0.3028   -2.7246    0.0224 C   0  0  0  0  0  0  0  0  0  0  0  0
    1.6012   -2.9155   -0.4663 C   0  0  0  0  0  0  0  0  0  0  0  0
    2.7125   -2.3345    0.1643 C   0  0  0  0  0  0  0  0  0  0  0  0
    2.5898   -1.5426    1.3224 C   0  0  0  0  0  0  0  0  0  0  0  0
    1.2853   -1.3170    1.8033 C   0  0  0  0  0  0  0  0  0  0  0  0
    0.1780   -1.9459    1.1868 C   0  0  0  0  0  0  0  0  0  0  0  0
   -1.1290   -1.6927    1.8187 C   0  0  0  0  0  0  0  0  0  0  0  0
   -1.8885   -2.5961    2.1340 O   0  0  0  0  0  0  0  0  0  0  0  0
   -1.3725   -0.3010    2.2103 C   0  0  0  0  0  0  0  0  0  0  0  0
   -2.6003    0.3265    2.0002 C   0  0  0  0  0  0  0  0  0  0  0  0
   -3.5339   -0.2575    1.1905 O   0  0  0  0  0  0  0  0  0  0  0  0
   -2.8023    1.6191    2.4779 C   0  0  0  0  0  0  0  0  0  0  0  0
   -1.7761    2.2709    3.1657 C   0  0  0  0  0  0  0  0  0  0  0  0
   -0.5435    1.6362    3.3644 C   0  0  0  0  0  0  0  0  0  0  0  0
    0.4949    2.3732    3.8640 O   0  0  0  0  0  0  0  0  0  0  0  0
   -0.3292    0.3489    2.8705 C   0  0  0  0  0  0  0  0  0  0  0  0
    0.9948   -0.3332    2.9003 C   0  0  0  0  0  0  0  0  0  0  0  0
    1.8225   -0.0571    3.7558 O   0  0  0  0  0  0  0  0  0  0  0  0
    3.7060   -0.8535    1.8408 N   0  0  0  0  0  0  0  0  0  0  0  0
    4.9710   -1.5898    1.9486 C   0  0  0  0  0  0  0  0  0  0  0  0
    5.6173   -1.4074    3.3271 C   0  0  0  0  0  0  0  0  0  0  0  0
    5.0667   -2.3278    4.3228 N   0  0  0  0  0  0  0  0  0  0  0  0
    5.7140   -3.6411    4.3081 C   0  0  0  0  0  0  0  0  0  0  0  0
    6.8253   -3.7027    5.3489 C   0  0  0  0  0  0  0  0  0  0  0  0
    7.0474   -5.0600    5.7147 O   0  0  0  0  0  0  0  0  0  0  0  0
   -4.1072    2.0796   -2.7629 H   0  0  0  0  0  0  0  0  0  0  0  0
   -4.2576    0.3628   -4.0765 H   0  0  0  0  0  0  0  0  0  0  0  0
   -2.6680    0.7484   -4.7828 H   0  0  0  0  0  0  0  0  0  0  0  0
   -3.2248   -0.2109   -1.9274 H   0  0  0  0  0  0  0  0  0  0  0  0
   -1.6288    0.2921   -2.5072 H   0  0  0  0  0  0  0  0  0  0  0  0
   -2.8414   -1.6889   -4.1602 H   0  0  0  0  0  0  0  0  0  0  0  0
   -2.1529   -3.5271   -2.8152 H   0  0  0  0  0  0  0  0  0  0  0  0
   -3.5936   -2.7160   -2.2536 H   0  0  0  0  0  0  0  0  0  0  0  0
   -2.6848   -2.5479   -0.2573 H   0  0  0  0  0  0  0  0  0  0  0  0
   -1.5590   -1.3356   -0.8572 H   0  0  0  0  0  0  0  0  0  0  0  0
   -0.4678   -3.8098   -1.4911 H   0  0  0  0  0  0  0  0  0  0  0  0
    1.7724   -3.5236   -1.3528 H   0  0  0  0  0  0  0  0  0  0  0  0
    3.6965   -2.5555   -0.2475 H   0  0  0  0  0  0  0  0  0  0  0  0
   -4.3780    0.2122    1.3045 H   0  0  0  0  0  0  0  0  0  0  0  0
   -3.7424    2.1352    2.3040 H   0  0  0  0  0  0  0  0  0  0  0  0
   -1.9599    3.2582    3.5831 H   0  0  0  0  0  0  0  0  0  0  0  0
    0.1324    2.9620    4.5494 H   0  0  0  0  0  0  0  0  0  0  0  0
    3.4713   -0.3636    2.7016 H   0  0  0  0  0  0  0  0  0  0  0  0
    4.8634   -2.6576    1.7260 H   0  0  0  0  0  0  0  0  0  0  0  0
    5.6506   -1.1778    1.1932 H   0  0  0  0  0  0  0  0  0  0  0  0
    5.4725   -0.3817    3.6866 H   0  0  0  0  0  0  0  0  0  0  0  0
    6.7035   -1.5369    3.2382 H   0  0  0  0  0  0  0  0  0  0  0  0
    4.0646   -2.4387    4.1718 H   0  0  0  0  0  0  0  0  0  0  0  0
    6.1207   -3.8909    3.3204 H   0  0  0  0  0  0  0  0  0  0  0  0
    4.9540   -4.3997    4.5299 H   0  0  0  0  0  0  0  0  0  0  0  0
    7.7623   -3.3121    4.9391 H   0  0  0  0  0  0  0  0  0  0  0  0
    6.5814   -3.1366    6.2542 H   0  0  0  0  0  0  0  0  0  0  0  0
    6.3721   -5.2944    6.3744 H   0  0  0  0  0  0  0  0  0  0  0  0
  2  1  1  0  0  0  0
  3  2  1  0  0  0  0
  4  3  1  0  0  0  0
  5  4  1  0  0  0  0
  6  5  1  0  0  0  0
  7  6  1  0  0  0  0
  8  7  1  0  0  0  0
  9  8  2  0  0  0  0
 10  9  1  0  0  0  0
 11 10  2  0  0  0  0
 12 11  1  0  0  0  0
 13 12  2  0  0  0  0
 13  8  1  0  0  0  0
 14 13  1  0  0  0  0
 15 14  2  0  0  0  0
 16 14  1  0  0  0  0
 17 16  2  0  0  0  0
 18 17  1  0  0  0  0
 19 17  1  0  0  0  0
 20 19  2  0  0  0  0
 21 20  1  0  0  0  0
 22 21  1  0  0  0  0
 23 21  2  0  0  0  0
 23 16  1  0  0  0  0
 24 23  1  0  0  0  0
 24 12  1  0  0  0  0
 25 24  2  0  0  0  0
 26 11  1  0  0  0  0
 27 26  1  0  0  0  0
 28 27  1  0  0  0  0
 29 28  1  0  0  0  0
 30 29  1  0  0  0  0
 31 30  1  0  0  0  0
 32 31  1  0  0  0  0
  1 33  1  0  0  0  0
  2 34  1  0  0  0  0
  2 35  1  0  0  0  0
  3 36  1  0  0  0  0
  3 37  1  0  0  0  0
  4 38  1  0  0  0  0
  5 39  1  0  0  0  0
  5 40  1  0  0  0  0
  6 41  1  0  0  0  0
  6 42  1  0  0  0  0
  7 43  1  0  0  0  0
  9 44  1  0  0  0  0
 10 45  1  0  0  0  0
 18 46  1  0  0  0  0
 19 47  1  0  0  0  0
 20 48  1  0  0  0  0
 22 49  1  0  0  0  0
 26 50  1  0  0  0  0
 27 51  1  0  0  0  0
 27 52  1  0  0  0  0
 28 53  1  0  0  0  0
 28 54  1  0  0  0  0
 29 55  1  0  0  0  0
 30 56  1  0  0  0  0
 30 57  1  0  0  0  0
 31 58  1  0  0  0  0
 31 59  1  0  0  0  0
 32 60  1  0  0  0  0
M  END
>  <energy>
120.79511621091223

$$$$
