1UTS_P13_B_1046
  1228              3D

 63 66  0  0  0  0  0  0  0  0999 V2000
   -3.2447    3.7329   -2.1659 C   0  0  0  0  0  0  0  0  0  0  0  0
   -2.1395    3.1594   -1.5249 C   0  0  0  0  0  0  0  0  0  0  0  0
   -2.1900    2.9693   -0.1334 C   0  0  0  0  0  0  0  0  0  0  0  0
   -3.3328    3.3058    0.6146 C   0  0  0  0  0  0  0  0  0  0  0  0
   -4.4484    3.8095   -0.0688 C   0  0  0  0  0  0  0  0  0  0  0  0
   -4.3870    4.0673   -1.4420 C   0  0  0  0  0  0  0  0  0  0  0  0
   -5.6444    4.0561    0.5574 O   0  0  0  0  0  0  0  0  0  0  0  0
   -6.3892    2.8585    0.8356 C   0  0  0  0  0  0  0  0  0  0  0  0
   -6.9968    2.1978   -0.4064 C   0  0  0  0  0  0  0  0  0  0  0  0
   -7.5205    0.7887   -0.1156 C   0  0  0  0  0  0  0  0  0  0  0  0
   -8.6647    0.8165    0.7868 N   0  0  0  0  0  0  0  0  0  0  0  0
   -3.2696    3.1958    2.1216 C   0  0  0  0  0  0  0  0  0  0  0  0
   -3.4594    1.8148    2.5675 N   0  0  0  0  0  0  0  0  0  0  0  0
   -3.2186    1.6665    4.0032 C   0  0  0  0  0  0  0  0  0  0  0  0
   -3.9986    0.4513    4.5204 C   0  0  0  0  0  0  0  0  0  0  0  0
   -3.2999   -0.1283    5.6766 N   0  0  0  0  0  0  0  0  0  0  0  0
   -3.8125    0.4064    6.9461 C   0  0  0  0  0  0  0  0  0  0  0  0
   -3.0461   -0.1954    8.1299 C   0  0  0  0  0  0  0  0  0  0  0  0
   -3.1307   -1.6569    8.1292 N   0  0  0  0  0  0  0  0  0  0  0  0
   -2.6251   -2.1879    6.8618 C   0  0  0  0  0  0  0  0  0  0  0  0
   -3.3784   -1.5944    5.6692 C   0  0  0  0  0  0  0  0  0  0  0  0
   -1.0153    2.6318   -2.3034 C   0  0  0  0  0  0  0  0  0  0  0  0
   -1.1450    1.4006   -2.9774 C   0  0  0  0  0  0  0  0  0  0  0  0
   -0.0100    0.8102   -3.5706 C   0  0  0  0  0  0  0  0  0  0  0  0
    0.1982   -0.3829   -4.3207 C   0  0  0  0  0  0  0  0  0  0  0  0
    1.4967   -0.3691   -4.7741 C   0  0  0  0  0  0  0  0  0  0  0  0
    2.0680    0.8103   -4.3782 N   0  0  0  0  0  0  0  0  0  0  0  0
    3.0192    1.0882   -4.5769 H   0  0  0  0  0  0  0  0  0  0  0  0
    1.1526    1.5731   -3.6875 C   0  0  0  0  0  0  0  0  0  0  0  0
    1.2646    2.8614   -3.1556 C   0  0  0  0  0  0  0  0  0  0  0  0
    0.1640    3.3732   -2.4576 C   0  0  0  0  0  0  0  0  0  0  0  0
   -3.2039    3.9701   -3.2275 H   0  0  0  0  0  0  0  0  0  0  0  0
   -1.3307    2.5372    0.3779 H   0  0  0  0  0  0  0  0  0  0  0  0
   -5.2409    4.4966   -1.9596 H   0  0  0  0  0  0  0  0  0  0  0  0
   -5.7854    2.1452    1.4026 H   0  0  0  0  0  0  0  0  0  0  0  0
   -7.2016    3.1678    1.5036 H   0  0  0  0  0  0  0  0  0  0  0  0
   -7.7977    2.8277   -0.8110 H   0  0  0  0  0  0  0  0  0  0  0  0
   -6.2455    2.0983   -1.1961 H   0  0  0  0  0  0  0  0  0  0  0  0
   -6.7252    0.1664    0.3111 H   0  0  0  0  0  0  0  0  0  0  0  0
   -7.8219    0.3177   -1.0579 H   0  0  0  0  0  0  0  0  0  0  0  0
   -9.1831   -0.0569    0.6993 H   0  0  0  0  0  0  0  0  0  0  0  0
   -8.3325    0.8458    1.7503 H   0  0  0  0  0  0  0  0  0  0  0  0
   -4.0319    3.8407    2.5747 H   0  0  0  0  0  0  0  0  0  0  0  0
   -2.2975    3.5764    2.4615 H   0  0  0  0  0  0  0  0  0  0  0  0
   -2.8254    1.1973    2.0600 H   0  0  0  0  0  0  0  0  0  0  0  0
   -3.5402    2.5595    4.5534 H   0  0  0  0  0  0  0  0  0  0  0  0
   -2.1412    1.5444    4.1707 H   0  0  0  0  0  0  0  0  0  0  0  0
   -4.1014   -0.2941    3.7202 H   0  0  0  0  0  0  0  0  0  0  0  0
   -5.0212    0.7562    4.7813 H   0  0  0  0  0  0  0  0  0  0  0  0
   -4.8833    0.1895    7.0533 H   0  0  0  0  0  0  0  0  0  0  0  0
   -3.6926    1.4965    6.9706 H   0  0  0  0  0  0  0  0  0  0  0  0
   -3.4756    0.1815    9.0640 H   0  0  0  0  0  0  0  0  0  0  0  0
   -1.9960    0.1198    8.1110 H   0  0  0  0  0  0  0  0  0  0  0  0
   -4.1048   -1.9337    8.2473 H   0  0  0  0  0  0  0  0  0  0  0  0
   -2.7376   -3.2778    6.8616 H   0  0  0  0  0  0  0  0  0  0  0  0
   -1.5508   -1.9819    6.7797 H   0  0  0  0  0  0  0  0  0  0  0  0
   -4.4256   -1.9254    5.6872 H   0  0  0  0  0  0  0  0  0  0  0  0
   -2.9248   -1.9861    4.7507 H   0  0  0  0  0  0  0  0  0  0  0  0
   -2.0427    0.7989   -2.8388 H   0  0  0  0  0  0  0  0  0  0  0  0
   -0.5221   -1.1692   -4.5006 H   0  0  0  0  0  0  0  0  0  0  0  0
    2.0583   -1.0853   -5.3576 H   0  0  0  0  0  0  0  0  0  0  0  0
    2.1791    3.4370   -3.2537 H   0  0  0  0  0  0  0  0  0  0  0  0
    0.2526    4.3582   -2.0021 H   0  0  0  0  0  0  0  0  0  0  0  0
  2  1  2  0  0  0  0
  3  2  1  0  0  0  0
  4  3  2  0  0  0  0
  5  4  1  0  0  0  0
  6  5  2  0  0  0  0
  6  1  1  0  0  0  0
  7  5  1  0  0  0  0
  8  7  1  0  0  0  0
  9  8  1  0  0  0  0
 10  9  1  0  0  0  0
 11 10  1  0  0  0  0
 12  4  1  0  0  0  0
 13 12  1  0  0  0  0
 14 13  1  0  0  0  0
 15 14  1  0  0  0  0
 16 15  1  0  0  0  0
 17 16  1  0  0  0  0
 18 17  1  0  0  0  0
 19 18  1  0  0  0  0
 20 19  1  0  0  0  0
 21 20  1  0  0  0  0
 21 16  1  0  0  0  0
 22  2  1  0  0  0  0
 23 22  2  0  0  0  0
 24 23  1  0  0  0  0
 25 24  1  0  0  0  0
 26 25  2  0  0  0  0
 27 26  1  0  0  0  0
 27 28  1  0  0  0  0
 29 27  1  0  0  0  0
 29 24  2  0  0  0  0
 30 29  1  0  0  0  0
 31 30  2  0  0  0  0
 31 22  1  0  0  0  0
  1 32  1  0  0  0  0
  3 33  1  0  0  0  0
  6 34  1  0  0  0  0
  8 35  1  0  0  0  0
  8 36  1  0  0  0  0
  9 37  1  0  0  0  0
  9 38  1  0  0  0  0
 10 39  1  0  0  0  0
 10 40  1  0  0  0  0
 11 41  1  0  0  0  0
 11 42  1  0  0  0  0
 12 43  1  0  0  0  0
 12 44  1  0  0  0  0
 13 45  1  0  0  0  0
 14 46  1  0  0  0  0
 14 47  1  0  0  0  0
 15 48  1  0  0  0  0
 15 49  1  0  0  0  0
 17 50  1  0  0  0  0
 17 51  1  0  0  0  0
 18 52  1  0  0  0  0
 18 53  1  0  0  0  0
 19 54  1  0  0  0  0
 20 55  1  0  0  0  0
 20 56  1  0  0  0  0
 21 57  1  0  0  0  0
 21 58  1  0  0  0  0
 23 59  1  0  0  0  0
 25 60  1  0  0  0  0
 26 61  1  0  0  0  0
 30 62  1  0  0  0  0
 31 63  1  0  0  0  0
M  END
>  <energy>
74.579390137144543

$$$$
