ligands/ligand.pdb
  1228              3D

 69 71  0  0  0  0  0  0  0  0999 V2000
    0.7291    3.6254   -1.3489 C   0  0  0  0  0  0  0  0  0  0  0  0
    1.3552    4.5149   -1.2307 H   0  0  0  0  0  0  0  0  0  0  0  0
    0.6324    3.2814   -2.8465 C   0  0  0  0  0  0  0  0  0  0  0  0
    0.1334    4.1026   -3.3761 H   0  0  0  0  0  0  0  0  0  0  0  0
    2.0120    2.9448   -3.4341 C   0  0  0  0  0  0  0  0  0  0  0  0
    1.9731    1.9746   -3.9503 H   0  0  0  0  0  0  0  0  0  0  0  0
    3.0907    2.8893   -2.3478 C   0  0  0  0  0  0  0  0  0  0  0  0
    3.4033    3.8991   -2.0529 H   0  0  0  0  0  0  0  0  0  0  0  0
    2.5946    2.1089   -1.1205 C   0  0  0  0  0  0  0  0  0  0  0  0
    2.4765    1.0559   -1.3936 H   0  0  0  0  0  0  0  0  0  0  0  0
    3.5817    2.1609    0.0506 C   0  0  0  0  0  0  0  0  0  0  0  0
    3.8225    3.5002    0.4641 O   0  0  0  0  0  0  0  0  0  0  0  0
    1.3144    2.5391   -0.6357 O   0  0  0  0  0  0  0  0  0  0  0  0
    4.2343    2.2263   -2.8786 O   0  0  0  0  0  0  0  0  0  0  0  0
    2.4011    3.9433   -4.4326 N   0  0  0  0  0  0  0  0  0  0  0  0
   -0.2048    2.1260   -2.9819 O   0  0  0  0  0  0  0  0  0  0  0  0
   -0.5958    3.9075   -0.9021 O   0  0  0  0  0  0  0  0  0  0  0  0
   -0.7688    4.6966    0.2895 C   0  0  0  0  0  0  0  0  0  0  0  0
   -1.8459    4.9074    0.3169 H   0  0  0  0  0  0  0  0  0  0  0  0
   -0.3957    3.9217    1.5664 C   0  0  0  0  0  0  0  0  0  0  0  0
    0.6752    3.6996    1.5650 H   0  0  0  0  0  0  0  0  0  0  0  0
   -0.7182    4.7794    2.7958 C   0  0  0  0  0  0  0  0  0  0  0  0
    0.0159    6.1256    2.7509 C   0  0  0  0  0  0  0  0  0  0  0  0
    1.0991    5.9423    2.7474 H   0  0  0  0  0  0  0  0  0  0  0  0
   -0.3555    6.9123    1.4714 C   0  0  0  0  0  0  0  0  0  0  0  0
   -1.4243    7.1666    1.4529 H   0  0  0  0  0  0  0  0  0  0  0  0
   -0.0399    6.0475    0.2396 C   0  0  0  0  0  0  0  0  0  0  0  0
    1.0476    5.9110    0.1965 H   0  0  0  0  0  0  0  0  0  0  0  0
   -0.4364    6.7572   -0.9390 O   0  0  0  0  0  0  0  0  0  0  0  0
    0.4641    8.0809    1.3528 O   0  0  0  0  0  0  0  0  0  0  0  0
   -0.0853    9.3323    1.8008 C   0  0  0  0  0  0  0  0  0  0  0  0
   -0.3836    9.8576    0.8856 H   0  0  0  0  0  0  0  0  0  0  0  0
    1.0654   10.1272    2.4697 C   0  0  0  0  0  0  0  0  0  0  0  0
    1.6530   10.5751    1.6552 H   0  0  0  0  0  0  0  0  0  0  0  0
    0.5872   11.2442    3.3939 C   0  0  0  0  0  0  0  0  0  0  0  0
   -0.8568   11.6019    3.0960 C   0  0  0  0  0  0  0  0  0  0  0  0
   -0.9743   11.9592    2.0621 H   0  0  0  0  0  0  0  0  0  0  0  0
   -1.6945   10.3377    3.3457 C   0  0  0  0  0  0  0  0  0  0  0  0
   -1.5812   10.0595    4.4068 H   0  0  0  0  0  0  0  0  0  0  0  0
   -3.1978   10.5823    3.1193 C   0  0  0  0  0  0  0  0  0  0  0  0
   -3.9567    9.3349    3.0692 N   0  0  0  0  0  0  0  0  0  0  0  0
   -1.2561    9.2002    2.5951 O   0  0  0  0  0  0  0  0  0  0  0  0
   -1.2493   12.6431    3.9911 O   0  0  0  0  0  0  0  0  0  0  0  0
    1.9920    9.2562    3.2049 N   0  0  0  0  0  0  0  0  0  0  0  0
   -0.3132    6.8636    3.9664 N   0  0  0  0  0  0  0  0  0  0  0  0
   -1.1301    2.6607    1.6722 N   0  0  0  0  0  0  0  0  0  0  0  0
    3.1684    1.6070    0.9075 H   0  0  0  0  0  0  0  0  0  0  0  0
    4.5414    1.7014   -0.2192 H   0  0  0  0  0  0  0  0  0  0  0  0
    2.9577    3.9143    0.6398 H   0  0  0  0  0  0  0  0  0  0  0  0
    4.9710    2.8600   -2.8601 H   0  0  0  0  0  0  0  0  0  0  0  0
    2.4672    4.8621   -3.9924 H   0  0  0  0  0  0  0  0  0  0  0  0
    1.6672    4.0145   -5.1365 H   0  0  0  0  0  0  0  0  0  0  0  0
   -0.5641    2.1503   -3.8848 H   0  0  0  0  0  0  0  0  0  0  0  0
   -0.4422    4.2316    3.7052 H   0  0  0  0  0  0  0  0  0  0  0  0
   -1.7979    4.9559    2.8586 H   0  0  0  0  0  0  0  0  0  0  0  0
    0.3683    6.9251   -1.4571 H   0  0  0  0  0  0  0  0  0  0  0  0
    1.2359   12.1207    3.3013 H   0  0  0  0  0  0  0  0  0  0  0  0
    0.6628   10.9325    4.4459 H   0  0  0  0  0  0  0  0  0  0  0  0
   -3.3770   11.1524    2.1965 H   0  0  0  0  0  0  0  0  0  0  0  0
   -3.6034   11.1774    3.9518 H   0  0  0  0  0  0  0  0  0  0  0  0
   -3.6560    8.7136    3.8229 H   0  0  0  0  0  0  0  0  0  0  0  0
   -3.7377    8.8500    2.1974 H   0  0  0  0  0  0  0  0  0  0  0  0
   -2.0037   13.1002    3.5709 H   0  0  0  0  0  0  0  0  0  0  0  0
    2.8988    9.7147    3.2696 H   0  0  0  0  0  0  0  0  0  0  0  0
    2.1460    8.3995    2.6728 H   0  0  0  0  0  0  0  0  0  0  0  0
   -0.0822    6.3025    4.7856 H   0  0  0  0  0  0  0  0  0  0  0  0
    0.2812    7.6889    4.0251 H   0  0  0  0  0  0  0  0  0  0  0  0
   -0.4686    1.8855    1.7030 H   0  0  0  0  0  0  0  0  0  0  0  0
   -1.6961    2.5109    0.8378 H   0  0  0  0  0  0  0  0  0  0  0  0
  1  2  1  0  0  0  0
  3  1  1  0  0  0  0
  3  4  1  0  0  0  0
  5  3  1  0  0  0  0
  5  6  1  0  0  0  0
  7  5  1  0  0  0  0
  7  8  1  0  0  0  0
  9  7  1  0  0  0  0
  9 10  1  0  0  0  0
 11  9  1  0  0  0  0
 12 11  1  0  0  0  0
 13  9  1  0  0  0  0
 13  1  1  0  0  0  0
 14  7  1  0  0  0  0
 15  5  1  0  0  0  0
 16  3  1  0  0  0  0
 17  1  1  0  0  0  0
 18 17  1  0  0  0  0
 18 19  1  0  0  0  0
 20 18  1  0  0  0  0
 20 21  1  0  0  0  0
 22 20  1  0  0  0  0
 23 22  1  0  0  0  0
 23 24  1  0  0  0  0
 25 23  1  0  0  0  0
 25 26  1  0  0  0  0
 27 25  1  0  0  0  0
 27 28  1  0  0  0  0
 27 18  1  0  0  0  0
 29 27  1  0  0  0  0
 30 25  1  0  0  0  0
 31 30  1  0  0  0  0
 31 32  1  0  0  0  0
 33 31  1  0  0  0  0
 33 34  1  0  0  0  0
 35 33  1  0  0  0  0
 36 35  1  0  0  0  0
 36 37  1  0  0  0  0
 38 36  1  0  0  0  0
 38 39  1  0  0  0  0
 40 38  1  0  0  0  0
 41 40  1  0  0  0  0
 42 38  1  0  0  0  0
 42 31  1  0  0  0  0
 43 36  1  0  0  0  0
 44 33  1  0  0  0  0
 45 23  1  0  0  0  0
 46 20  1  0  0  0  0
 11 47  1  0  0  0  0
 11 48  1  0  0  0  0
 12 49  1  0  0  0  0
 14 50  1  0  0  0  0
 15 51  1  0  0  0  0
 15 52  1  0  0  0  0
 16 53  1  0  0  0  0
 22 54  1  0  0  0  0
 22 55  1  0  0  0  0
 29 56  1  0  0  0  0
 35 57  1  0  0  0  0
 35 58  1  0  0  0  0
 40 59  1  0  0  0  0
 40 60  1  0  0  0  0
 41 61  1  0  0  0  0
 41 62  1  0  0  0  0
 43 63  1  0  0  0  0
 44 64  1  0  0  0  0
 44 65  1  0  0  0  0
 45 66  1  0  0  0  0
 45 67  1  0  0  0  0
 46 68  1  0  0  0  0
 46 69  1  0  0  0  0
M  END
>  <energy>
99.911544020159084

$$$$
