1NTB_SRY_A_25
  1228              3D

 79 81  0  0  0  0  0  0  0  0999 V2000
   -2.4124   -3.9157   -4.1727 C   0  0  0  0  0  0  0  0  0  0  0  0
   -1.3663   -4.1397   -4.4129 H   0  0  0  0  0  0  0  0  0  0  0  0
   -3.2353   -4.2075   -5.3575 N   0  0  0  0  0  0  0  0  0  0  0  0
   -3.0275   -5.3524   -6.1141 C   0  0  0  0  0  0  0  0  0  0  0  0
   -3.9730   -6.2194   -6.3584 N   0  0  0  0  0  0  0  0  0  0  0  0
   -1.7496   -5.5097   -6.6197 N   0  0  0  0  0  0  0  0  0  0  0  0
   -2.8748   -4.7540   -2.9867 C   0  0  0  0  0  0  0  0  0  0  0  0
   -3.9248   -4.5220   -2.7502 H   0  0  0  0  0  0  0  0  0  0  0  0
   -2.8173   -6.1467   -3.3309 O   0  0  0  0  0  0  0  0  0  0  0  0
   -1.9617   -4.5026   -1.7814 C   0  0  0  0  0  0  0  0  0  0  0  0
   -0.9304   -4.7906   -2.0685 H   0  0  0  0  0  0  0  0  0  0  0  0
   -2.3372   -5.4223   -0.7096 N   0  0  0  0  0  0  0  0  0  0  0  0
   -3.1910   -5.1215    0.3274 C   0  0  0  0  0  0  0  0  0  0  0  0
   -4.4605   -5.4140    0.3119 N   0  0  0  0  0  0  0  0  0  0  0  0
   -2.5565   -4.5595    1.4098 N   0  0  0  0  0  0  0  0  0  0  0  0
   -1.9074   -3.0225   -1.3317 C   0  0  0  0  0  0  0  0  0  0  0  0
   -2.8509   -2.7086   -0.8719 H   0  0  0  0  0  0  0  0  0  0  0  0
   -0.9102   -3.0216   -0.2882 O   0  0  0  0  0  0  0  0  0  0  0  0
   -0.2806   -1.8222    0.1042 C   0  0  0  0  0  0  0  0  0  0  0  0
   -0.5211   -0.9886   -0.5617 H   0  0  0  0  0  0  0  0  0  0  0  0
   -0.4759   -1.3566    1.5548 C   0  0  0  0  0  0  0  0  0  0  0  0
   -0.0567   -2.1742    2.1661 H   0  0  0  0  0  0  0  0  0  0  0  0
    0.4890   -0.1030    1.4294 C   0  0  0  0  0  0  0  0  0  0  0  0
    1.3931    0.7884    2.1740 O   0  0  0  0  0  0  0  0  0  0  0  0
   -0.2452    0.6887    2.5070 C   0  0  0  0  0  0  0  0  0  0  0  0
   -1.0268    1.5893    2.1635 O   0  0  0  0  0  0  0  0  0  0  0  0
    1.6763   -1.1096    1.1800 C   0  0  0  0  0  0  0  0  0  0  0  0
    1.8680   -1.7165    2.0810 H   0  0  0  0  0  0  0  0  0  0  0  0
    3.0055   -0.5569    0.6795 C   0  0  0  0  0  0  0  0  0  0  0  0
    1.1715   -1.9772    0.1034 O   0  0  0  0  0  0  0  0  0  0  0  0
   -1.8412   -1.2792    1.9387 O   0  0  0  0  0  0  0  0  0  0  0  0
   -2.1106   -1.3544    3.3886 C   0  0  0  0  0  0  0  0  0  0  0  0
   -2.3463   -0.3015    3.5771 H   0  0  0  0  0  0  0  0  0  0  0  0
   -3.4339   -2.0700    3.8425 C   0  0  0  0  0  0  0  0  0  0  0  0
   -3.9019   -1.4162    4.5976 H   0  0  0  0  0  0  0  0  0  0  0  0
   -4.3534   -2.2081    2.7025 N   0  0  0  0  0  0  0  0  0  0  0  0
   -5.7439   -2.0197    3.0721 C   0  0  0  0  0  0  0  0  0  0  0  0
   -3.1968   -3.4191    4.5845 C   0  0  0  0  0  0  0  0  0  0  0  0
   -2.8911   -4.2241    3.9055 H   0  0  0  0  0  0  0  0  0  0  0  0
   -4.3878   -3.8294    5.2758 O   0  0  0  0  0  0  0  0  0  0  0  0
   -2.1013   -3.2031    5.6355 C   0  0  0  0  0  0  0  0  0  0  0  0
   -2.3765   -2.3902    6.3184 H   0  0  0  0  0  0  0  0  0  0  0  0
   -1.9690   -4.3971    6.4065 O   0  0  0  0  0  0  0  0  0  0  0  0
   -0.8100   -2.8348    4.8931 C   0  0  0  0  0  0  0  0  0  0  0  0
   -0.6102   -3.5643    4.0924 H   0  0  0  0  0  0  0  0  0  0  0  0
   -1.0040   -1.5433    4.2920 O   0  0  0  0  0  0  0  0  0  0  0  0
    0.4308   -2.7050    5.7881 C   0  0  0  0  0  0  0  0  0  0  0  0
    0.8705   -3.9761    6.2322 O   0  0  0  0  0  0  0  0  0  0  0  0
   -1.6737   -2.0895   -2.5520 C   0  0  0  0  0  0  0  0  0  0  0  0
   -0.6104   -2.0888   -2.8160 H   0  0  0  0  0  0  0  0  0  0  0  0
   -2.0359   -0.7538   -2.2052 O   0  0  0  0  0  0  0  0  0  0  0  0
   -2.5071   -2.4323   -3.7995 C   0  0  0  0  0  0  0  0  0  0  0  0
   -3.5575   -2.1772   -3.6304 H   0  0  0  0  0  0  0  0  0  0  0  0
   -2.0569   -1.6468   -4.9036 O   0  0  0  0  0  0  0  0  0  0  0  0
   -3.4880   -3.3864   -5.8859 H   0  0  0  0  0  0  0  0  0  0  0  0
   -4.8357   -5.9162   -5.8936 H   0  0  0  0  0  0  0  0  0  0  0  0
   -1.6656   -6.2233   -7.3327 H   0  0  0  0  0  0  0  0  0  0  0  0
   -1.3296   -4.6444   -6.9518 H   0  0  0  0  0  0  0  0  0  0  0  0
   -3.6412   -6.5517   -3.0097 H   0  0  0  0  0  0  0  0  0  0  0  0
   -1.6077   -6.0944   -0.4886 H   0  0  0  0  0  0  0  0  0  0  0  0
   -4.6770   -5.8516   -0.5942 H   0  0  0  0  0  0  0  0  0  0  0  0
   -2.7533   -3.5634    1.4933 H   0  0  0  0  0  0  0  0  0  0  0  0
   -1.5437   -4.6846    1.4169 H   0  0  0  0  0  0  0  0  0  0  0  0
    1.8212    0.2759    2.8891 H   0  0  0  0  0  0  0  0  0  0  0  0
   -0.1009    0.4664    3.5823 H   0  0  0  0  0  0  0  0  0  0  0  0
    3.6452   -0.3288    1.5326 H   0  0  0  0  0  0  0  0  0  0  0  0
    3.4990   -1.2917    0.0481 H   0  0  0  0  0  0  0  0  0  0  0  0
    2.8646    0.3518    0.0980 H   0  0  0  0  0  0  0  0  0  0  0  0
   -4.0984   -1.5231    1.9931 H   0  0  0  0  0  0  0  0  0  0  0  0
   -6.3686   -2.6823    2.4611 H   0  0  0  0  0  0  0  0  0  0  0  0
   -5.9663   -2.2405    4.1227 H   0  0  0  0  0  0  0  0  0  0  0  0
   -6.0749   -0.9975    2.8507 H   0  0  0  0  0  0  0  0  0  0  0  0
   -4.5888   -4.7389    5.0159 H   0  0  0  0  0  0  0  0  0  0  0  0
   -2.2996   -4.1963    7.2957 H   0  0  0  0  0  0  0  0  0  0  0  0
    1.2533   -2.2394    5.2429 H   0  0  0  0  0  0  0  0  0  0  0  0
    0.2423   -2.0719    6.6573 H   0  0  0  0  0  0  0  0  0  0  0  0
    0.1436   -4.3583    6.7506 H   0  0  0  0  0  0  0  0  0  0  0  0
   -1.5202   -0.1730   -2.7944 H   0  0  0  0  0  0  0  0  0  0  0  0
   -1.0932   -1.7621   -4.9981 H   0  0  0  0  0  0  0  0  0  0  0  0
  1  7  1  0  0  0  0
  1  3  1  0  0  0  0
  1  2  1  0  0  0  0
  3  4  1  0  0  0  0
  3 55  1  0  0  0  0
  4  5  2  0  0  0  0
  4  6  1  0  0  0  0
  5 56  1  0  0  0  0
  6 57  1  0  0  0  0
  6 58  1  0  0  0  0
  7  8  1  0  0  0  0
  7  9  1  0  0  0  0
  7 10  1  0  0  0  0
  9 59  1  0  0  0  0
 10 11  1  0  0  0  0
 10 12  1  0  0  0  0
 10 16  1  0  0  0  0
 12 13  1  0  0  0  0
 12 60  1  0  0  0  0
 13 14  2  0  0  0  0
 13 15  1  0  0  0  0
 14 61  1  0  0  0  0
 15 62  1  0  0  0  0
 15 63  1  0  0  0  0
 16 49  1  0  0  0  0
 16 18  1  0  0  0  0
 16 17  1  0  0  0  0
 18 19  1  0  0  0  0
 19 20  1  0  0  0  0
 19 21  1  0  0  0  0
 19 30  1  0  0  0  0
 21 23  1  0  0  0  0
 21 31  1  0  0  0  0
 21 22  1  0  0  0  0
 23 27  1  0  0  0  0
 23 25  1  0  0  0  0
 23 24  1  0  0  0  0
 24 64  1  0  0  0  0
 25 26  2  0  0  0  0
 25 65  1  0  0  0  0
 27 28  1  0  0  0  0
 27 29  1  0  0  0  0
 27 30  1  0  0  0  0
 29 66  1  0  0  0  0
 29 67  1  0  0  0  0
 29 68  1  0  0  0  0
 31 32  1  0  0  0  0
 32 33  1  0  0  0  0
 32 46  1  0  0  0  0
 34 32  1  0  0  0  0
 34 35  1  0  0  0  0
 34 36  1  0  0  0  0
 36 37  1  0  0  0  0
 36 69  1  0  0  0  0
 37 70  1  0  0  0  0
 37 71  1  0  0  0  0
 37 72  1  0  0  0  0
 38 34  1  0  0  0  0
 38 39  1  0  0  0  0
 38 40  1  0  0  0  0
 40 73  1  0  0  0  0
 41 38  1  0  0  0  0
 41 43  1  0  0  0  0
 41 42  1  0  0  0  0
 43 74  1  0  0  0  0
 44 41  1  0  0  0  0
 44 45  1  0  0  0  0
 44 46  1  0  0  0  0
 44 47  1  0  0  0  0
 47 48  1  0  0  0  0
 47 75  1  0  0  0  0
 47 76  1  0  0  0  0
 48 77  1  0  0  0  0
 49 50  1  0  0  0  0
 49 51  1  0  0  0  0
 49 52  1  0  0  0  0
 51 78  1  0  0  0  0
 52  1  1  0  0  0  0
 52 54  1  0  0  0  0
 52 53  1  0  0  0  0
 54 79  1  0  0  0  0
M  END
>  <energy>
292.86358439901386

$$$$
