
  1228              3D

 27 26  0  0  0  0  0  0  0  0999 V2000
   -3.2427   -0.7455   -0.3221 N   0  0  0  0  0  0  0  0  0  0  0  0
   -2.1115   -0.0265    0.2604 C   0  0  0  0  0  0  0  0  0  0  0  0
   -1.2390   -0.6872    0.1978 H   0  0  0  0  0  0  0  0  0  0  0  0
   -2.4185    0.1846    1.7245 C   0  0  0  0  0  0  0  0  0  0  0  0
   -1.8038   -0.3475    2.6387 O   0  0  0  0  0  0  0  0  0  0  0  0
   -3.4637    1.0285    1.9129 O   0  0  0  0  0  0  0  0  0  0  0  0
   -1.8107    1.2982   -0.4621 C   0  0  0  0  0  0  0  0  0  0  0  0
   -0.3370    1.6961   -0.2846 C   0  0  0  0  0  0  0  0  0  0  0  0
    0.0399    2.9164   -1.1185 C   0  0  0  0  0  0  0  0  0  0  0  0
    1.4269    3.3528   -0.8514 N   0  0  0  0  0  0  0  0  0  0  0  0
    2.5576    2.6680   -1.3027 C   0  0  0  0  0  0  0  0  0  0  0  0
    2.4735    1.6382   -2.2315 N   0  3  0  0  0  0  0  0  0  0  0  0
    3.3091    1.1476   -2.5432 H   0  0  0  0  0  0  0  0  0  0  0  0
    1.5842    1.3316   -2.6140 H   0  0  0  0  0  0  0  0  0  0  0  0
    3.8085    3.0245   -0.8122 N   0  0  0  0  0  0  0  0  0  0  0  0
   -3.3100   -1.6687    0.1097 H   0  0  0  0  0  0  0  0  0  0  0  0
   -4.1130   -0.2655   -0.0956 H   0  0  0  0  0  0  0  0  0  0  0  0
   -3.4035    1.4961    2.7725 H   0  0  0  0  0  0  0  0  0  0  0  0
   -2.4541    2.1062   -0.0890 H   0  0  0  0  0  0  0  0  0  0  0  0
   -2.0291    1.2041   -1.5326 H   0  0  0  0  0  0  0  0  0  0  0  0
    0.3057    0.8552   -0.5707 H   0  0  0  0  0  0  0  0  0  0  0  0
   -0.1502    1.9137    0.7732 H   0  0  0  0  0  0  0  0  0  0  0  0
   -0.6102    3.7609   -0.8675 H   0  0  0  0  0  0  0  0  0  0  0  0
   -0.0638    2.7266   -2.1912 H   0  0  0  0  0  0  0  0  0  0  0  0
    1.5761    4.2079   -0.3186 H   0  0  0  0  0  0  0  0  0  0  0  0
    4.5641    2.3448   -0.7670 H   0  0  0  0  0  0  0  0  0  0  0  0
    4.0006    3.9711   -0.4943 H   0  0  0  0  0  0  0  0  0  0  0  0
  2  1  1  0  0  0  0
  2  3  1  0  0  0  0
  4  2  1  0  0  0  0
  5  4  2  0  0  0  0
  6  4  1  0  0  0  0
  7  2  1  0  0  0  0
  8  7  1  0  0  0  0
  9  8  1  0  0  0  0
 10  9  1  0  0  0  0
 11 10  1  0  0  0  0
 12 11  2  0  0  0  0
 12 13  1  0  0  0  0
 12 14  1  0  0  0  0
 15 11  1  0  0  0  0
  1 16  1  0  0  0  0
  1 17  1  0  0  0  0
  6 18  1  0  0  0  0
  7 19  1  0  0  0  0
  7 20  1  0  0  0  0
  8 21  1  0  0  0  0
  8 22  1  0  0  0  0
  9 23  1  0  0  0  0
  9 24  1  0  0  0  0
 10 25  1  0  0  0  0
 15 26  1  0  0  0  0
 15 27  1  0  0  0  0
M  CHG  1  12   1
M  END
>  <energy>
15.928065750557499

$$$$
