2G5K_AM2_A_102
  1228              3D

 78 81  0  0  0  0  0  0  0  0999 V2000
   -1.6077    6.8225    1.4054 C   0  0  0  0  0  0  0  0  0  0  0  0
   -1.5646    7.8297    0.9882 H   0  0  0  0  0  0  0  0  0  0  0  0
   -3.1005    6.4251    1.5882 C   0  0  0  0  0  0  0  0  0  0  0  0
   -3.6935    7.3008    1.2919 H   0  0  0  0  0  0  0  0  0  0  0  0
   -3.6418    5.2428    0.7582 C   0  0  0  0  0  0  0  0  0  0  0  0
   -2.6390    4.5138   -0.1294 C   0  0  0  0  0  0  0  0  0  0  0  0
   -2.7121    4.9443   -1.1372 H   0  0  0  0  0  0  0  0  0  0  0  0
   -1.2271    4.6743    0.3999 C   0  0  0  0  0  0  0  0  0  0  0  0
   -1.1037    4.2636    1.4079 H   0  0  0  0  0  0  0  0  0  0  0  0
   -0.2758    3.9678   -0.5565 C   0  0  0  0  0  0  0  0  0  0  0  0
    0.7628    4.1016   -0.2240 H   0  0  0  0  0  0  0  0  0  0  0  0
   -0.6037    2.4759   -0.6380 C   0  0  0  0  0  0  0  0  0  0  0  0
   -0.0470    2.0179    0.1869 H   0  0  0  0  0  0  0  0  0  0  0  0
   -2.1068    2.1191   -0.4389 C   0  0  0  0  0  0  0  0  0  0  0  0
   -2.4630    1.6094   -1.3402 H   0  0  0  0  0  0  0  0  0  0  0  0
   -3.0629    3.1606   -0.2514 O   0  0  0  0  0  0  0  0  0  0  0  0
   -2.2043    1.0843    0.5698 O   0  0  0  0  0  0  0  0  0  0  0  0
   -2.4033    1.5299    1.9152 C   0  0  0  0  0  0  0  0  0  0  0  0
   -2.5160    2.6163    1.9516 H   0  0  0  0  0  0  0  0  0  0  0  0
   -1.2033    1.1085    2.7752 C   0  0  0  0  0  0  0  0  0  0  0  0
   -0.2811    1.5439    2.3804 H   0  0  0  0  0  0  0  0  0  0  0  0
   -1.4059    1.4746    4.2491 C   0  0  0  0  0  0  0  0  0  0  0  0
   -1.2658    0.5974    4.8948 H   0  0  0  0  0  0  0  0  0  0  0  0
   -2.7664    2.1465    4.4994 C   0  0  0  0  0  0  0  0  0  0  0  0
   -2.7338    3.1806    4.1230 H   0  0  0  0  0  0  0  0  0  0  0  0
   -3.9079    1.3681    3.8033 C   0  0  0  0  0  0  0  0  0  0  0  0
   -4.0728    0.4318    4.3536 H   0  0  0  0  0  0  0  0  0  0  0  0
   -5.2589    2.0952    3.7180 C   0  0  0  0  0  0  0  0  0  0  0  0
   -5.3703    3.1724    4.6354 O   0  0  0  0  0  0  0  0  0  0  0  0
   -3.5859    0.9423    2.4630 O   0  0  0  0  0  0  0  0  0  0  0  0
   -3.0114    2.1925    5.9428 N   0  0  0  0  0  0  0  0  0  0  0  0
   -0.3902    2.4257    4.6012 O   0  0  0  0  0  0  0  0  0  0  0  0
   -1.0558   -0.3117    2.6795 O   0  0  0  0  0  0  0  0  0  0  0  0
   -0.0714    1.9313   -1.9023 N   0  0  0  0  0  0  0  0  0  0  0  0
    0.4932    0.6001   -1.7479 C   0  0  0  0  0  0  0  0  0  0  0  0
   -0.3684    4.5880   -1.8451 O   0  0  0  0  0  0  0  0  0  0  0  0
   -0.9252    6.0648    0.3968 O   0  0  0  0  0  0  0  0  0  0  0  0
   -3.4370    6.1982    3.0008 N   0  0  0  0  0  0  0  0  0  0  0  0
   -0.8514    6.7934    2.6181 O   0  0  0  0  0  0  0  0  0  0  0  0
   -0.8708    7.8812    3.5681 C   0  0  0  0  0  0  0  0  0  0  0  0
   -1.4951    7.5242    4.4006 H   0  0  0  0  0  0  0  0  0  0  0  0
    0.5856    7.9576    4.0853 C   0  0  0  0  0  0  0  0  0  0  0  0
    1.2902    7.8112    3.2538 H   0  0  0  0  0  0  0  0  0  0  0  0
    0.9036    9.2724    4.7802 C   0  0  0  0  0  0  0  0  0  0  0  0
    0.2458    9.4158    5.6463 H   0  0  0  0  0  0  0  0  0  0  0  0
    0.8223   10.4440    3.7832 C   0  0  0  0  0  0  0  0  0  0  0  0
    1.7872   10.5644    3.2726 H   0  0  0  0  0  0  0  0  0  0  0  0
   -0.2498   10.2090    2.6932 C   0  0  0  0  0  0  0  0  0  0  0  0
   -1.3954    9.2744    3.1140 C   0  0  0  0  0  0  0  0  0  0  0  0
   -2.0838    9.1755    2.2733 H   0  0  0  0  0  0  0  0  0  0  0  0
   -2.2233    9.9136    4.1496 N   0  0  0  0  0  0  0  0  0  0  0  0
    0.5806   11.7152    4.4792 N   0  0  0  0  0  0  0  0  0  0  0  0
    2.2387    9.2121    5.2950 O   0  0  0  0  0  0  0  0  0  0  0  0
    0.7924    6.8800    4.9937 O   0  0  0  0  0  0  0  0  0  0  0  0
   -4.4548    5.6157    0.1158 H   0  0  0  0  0  0  0  0  0  0  0  0
   -4.1428    4.5093    1.4059 H   0  0  0  0  0  0  0  0  0  0  0  0
   -5.4092    2.5146    2.7182 H   0  0  0  0  0  0  0  0  0  0  0  0
   -6.0707    1.3833    3.9019 H   0  0  0  0  0  0  0  0  0  0  0  0
   -6.0674    2.9537    5.2757 H   0  0  0  0  0  0  0  0  0  0  0  0
   -3.8500    2.7427    6.1348 H   0  0  0  0  0  0  0  0  0  0  0  0
   -2.2484    2.6913    6.3992 H   0  0  0  0  0  0  0  0  0  0  0  0
   -0.2593    2.3561    5.5625 H   0  0  0  0  0  0  0  0  0  0  0  0
   -0.1101   -0.5127    2.7944 H   0  0  0  0  0  0  0  0  0  0  0  0
   -0.7906    1.9340   -2.6254 H   0  0  0  0  0  0  0  0  0  0  0  0
   -0.2337   -0.1070   -1.3367 H   0  0  0  0  0  0  0  0  0  0  0  0
    1.3719    0.6269   -1.0964 H   0  0  0  0  0  0  0  0  0  0  0  0
    0.8162    0.2252   -2.7231 H   0  0  0  0  0  0  0  0  0  0  0  0
    0.2892    5.3041   -1.8681 H   0  0  0  0  0  0  0  0  0  0  0  0
   -2.8262    5.4725    3.3773 H   0  0  0  0  0  0  0  0  0  0  0  0
   -4.3884    5.8534    3.0918 H   0  0  0  0  0  0  0  0  0  0  0  0
   -0.6428   11.1612    2.3191 H   0  0  0  0  0  0  0  0  0  0  0  0
    0.2447    9.7471    1.8256 H   0  0  0  0  0  0  0  0  0  0  0  0
   -3.1228    9.4372    4.2134 H   0  0  0  0  0  0  0  0  0  0  0  0
   -1.7917    9.8176    5.0661 H   0  0  0  0  0  0  0  0  0  0  0  0
   -0.0582   11.5824    5.2607 H   0  0  0  0  0  0  0  0  0  0  0  0
    1.4579   12.0414    4.8848 H   0  0  0  0  0  0  0  0  0  0  0  0
    2.2901    9.8339    6.0373 H   0  0  0  0  0  0  0  0  0  0  0  0
    0.8856    6.0720    4.4599 H   0  0  0  0  0  0  0  0  0  0  0  0
  1  2  1  0  0  0  0
  3  1  1  0  0  0  0
  3  4  1  0  0  0  0
  5  3  1  0  0  0  0
  6  5  1  0  0  0  0
  6  7  1  0  0  0  0
  8  6  1  0  0  0  0
  8  9  1  0  0  0  0
 10  8  1  0  0  0  0
 10 11  1  0  0  0  0
 12 10  1  0  0  0  0
 12 13  1  0  0  0  0
 14 12  1  0  0  0  0
 14 15  1  0  0  0  0
 16 14  1  0  0  0  0
 16  6  1  0  0  0  0
 17 14  1  0  0  0  0
 18 17  1  0  0  0  0
 18 19  1  0  0  0  0
 20 18  1  0  0  0  0
 20 21  1  0  0  0  0
 22 20  1  0  0  0  0
 22 23  1  0  0  0  0
 24 22  1  0  0  0  0
 24 25  1  0  0  0  0
 26 24  1  0  0  0  0
 26 27  1  0  0  0  0
 28 26  1  0  0  0  0
 29 28  1  0  0  0  0
 30 26  1  0  0  0  0
 30 18  1  0  0  0  0
 31 24  1  0  0  0  0
 32 22  1  0  0  0  0
 33 20  1  0  0  0  0
 34 12  1  0  0  0  0
 35 34  1  0  0  0  0
 36 10  1  0  0  0  0
 37  8  1  0  0  0  0
 37  1  1  0  0  0  0
 38  3  1  0  0  0  0
 39  1  1  0  0  0  0
 40 39  1  0  0  0  0
 40 41  1  0  0  0  0
 42 40  1  0  0  0  0
 42 43  1  0  0  0  0
 44 42  1  0  0  0  0
 44 45  1  0  0  0  0
 46 44  1  0  0  0  0
 46 47  1  0  0  0  0
 48 46  1  0  0  0  0
 49 48  1  0  0  0  0
 49 50  1  0  0  0  0
 49 40  1  0  0  0  0
 51 49  1  0  0  0  0
 52 46  1  0  0  0  0
 53 44  1  0  0  0  0
 54 42  1  0  0  0  0
  5 55  1  0  0  0  0
  5 56  1  0  0  0  0
 28 57  1  0  0  0  0
 28 58  1  0  0  0  0
 29 59  1  0  0  0  0
 31 60  1  0  0  0  0
 31 61  1  0  0  0  0
 32 62  1  0  0  0  0
 33 63  1  0  0  0  0
 34 64  1  0  0  0  0
 35 65  1  0  0  0  0
 35 66  1  0  0  0  0
 35 67  1  0  0  0  0
 36 68  1  0  0  0  0
 38 69  1  0  0  0  0
 38 70  1  0  0  0  0
 48 71  1  0  0  0  0
 48 72  1  0  0  0  0
 51 73  1  0  0  0  0
 51 74  1  0  0  0  0
 52 75  1  0  0  0  0
 52 76  1  0  0  0  0
 53 77  1  0  0  0  0
 54 78  1  0  0  0  0
M  END
>  <energy>
150.26311143562941

$$$$
