3D2V_PYI_A_84
  1228              3D

 48 49  0  0  0  0  0  0  0  0999 V2000
    7.1463   -0.3891    1.5144 C   0  0  0  0  0  0  0  0  0  0  0  0
    5.8109   -0.6851    0.9144 C   0  0  0  0  0  0  0  0  0  0  0  0
    4.9314    0.3266    0.8656 N   0  0  0  0  0  0  0  0  0  0  0  0
    3.7866    0.0348    0.2135 C   0  0  0  0  0  0  0  0  0  0  0  0
    3.4284   -1.2431   -0.2117 C   0  0  0  0  0  0  0  0  0  0  0  0
    2.3031   -1.3741   -1.1954 C   0  0  0  0  0  0  0  0  0  0  0  0
    1.2365   -2.3652   -0.8676 N   0  3  0  0  0  0  0  0  0  0  0  0
    1.1461   -3.4642   -1.6534 C   0  0  0  0  0  0  0  0  0  0  0  0
    0.0223   -4.2685   -1.6522 C   0  0  0  0  0  0  0  0  0  0  0  0
   -1.0788   -3.8608   -0.9249 C   0  0  0  0  0  0  0  0  0  0  0  0
   -1.0236   -2.6869   -0.1664 C   0  0  0  0  0  0  0  0  0  0  0  0
   -2.3251   -2.1374    0.3649 C   0  0  0  0  0  0  0  0  0  0  0  0
   -3.1133   -1.4492   -0.7590 C   0  0  0  0  0  0  0  0  0  0  0  0
   -4.0219   -2.3780   -1.3432 O   0  0  0  0  0  0  0  0  0  0  0  0
   -4.7351   -1.9872   -2.7453 P   0  0  0  0  0  0  0  0  0  0  0  0
   -5.1041   -0.5409   -2.9176 O   0  0  0  0  0  0  0  0  0  0  0  0
   -3.7088   -2.5666   -3.8603 O   0  0  0  0  0  0  0  0  0  0  0  0
   -5.9692   -3.0308   -2.8194 O   0  0  0  0  0  0  0  0  0  0  0  0
   -7.4476   -2.9106   -3.4585 P   0  0  0  0  0  0  0  0  0  0  0  0
   -7.7190   -1.6676   -4.2583 O   0  0  0  0  0  0  0  0  0  0  0  0
   -8.4194   -3.1294   -2.1843 O   0  0  0  0  0  0  0  0  0  0  0  0
   -7.6018   -4.2990   -4.2790 O   0  0  0  0  0  0  0  0  0  0  0  0
    0.2339   -2.0751    0.0161 C   0  0  0  0  0  0  0  0  0  0  0  0
    0.4853   -1.0811    1.1007 C   0  0  0  0  0  0  0  0  0  0  0  0
    4.4133   -2.2093   -0.0191 C   0  0  0  0  0  0  0  0  0  0  0  0
    4.1120   -3.5597   -0.3198 N   0  0  0  0  0  0  0  0  0  0  0  0
    5.4050   -1.9658    0.8694 N   0  0  0  0  0  0  0  0  0  0  0  0
    7.6887   -1.3111    1.7430 H   0  0  0  0  0  0  0  0  0  0  0  0
    7.7471    0.1944    0.8094 H   0  0  0  0  0  0  0  0  0  0  0  0
    7.0363    0.1900    2.4366 H   0  0  0  0  0  0  0  0  0  0  0  0
    3.1407    0.8909    0.0375 H   0  0  0  0  0  0  0  0  0  0  0  0
    2.7171   -1.6260   -2.1798 H   0  0  0  0  0  0  0  0  0  0  0  0
    1.7760   -0.4203   -1.3324 H   0  0  0  0  0  0  0  0  0  0  0  0
    1.9765   -3.6688   -2.3176 H   0  0  0  0  0  0  0  0  0  0  0  0
   -0.0332   -5.1441   -2.2906 H   0  0  0  0  0  0  0  0  0  0  0  0
   -2.0079   -4.4192   -1.0217 H   0  0  0  0  0  0  0  0  0  0  0  0
   -2.1661   -1.4127    1.1655 H   0  0  0  0  0  0  0  0  0  0  0  0
   -2.9173   -2.9460    0.8090 H   0  0  0  0  0  0  0  0  0  0  0  0
   -2.4518   -1.0481   -1.5387 H   0  0  0  0  0  0  0  0  0  0  0  0
   -3.6889   -0.6114   -0.3503 H   0  0  0  0  0  0  0  0  0  0  0  0
   -4.0691   -3.1195   -4.5882 H   0  0  0  0  0  0  0  0  0  0  0  0
   -8.7365   -4.0364   -1.9828 H   0  0  0  0  0  0  0  0  0  0  0  0
   -8.5036   -4.6476   -4.4553 H   0  0  0  0  0  0  0  0  0  0  0  0
    0.5751   -0.0721    0.7102 H   0  0  0  0  0  0  0  0  0  0  0  0
   -0.2779   -1.0762    1.8787 H   0  0  0  0  0  0  0  0  0  0  0  0
    1.4071   -1.3393    1.6234 H   0  0  0  0  0  0  0  0  0  0  0  0
    3.5781   -3.9794    0.4384 H   0  0  0  0  0  0  0  0  0  0  0  0
    4.9752   -4.0840   -0.4462 H   0  0  0  0  0  0  0  0  0  0  0  0
  2  1  1  0  0  0  0
  3  2  2  0  0  0  0
  4  3  1  0  0  0  0
  5  4  2  0  0  0  0
  6  5  1  0  0  0  0
  7  6  1  0  0  0  0
  8  7  2  0  0  0  0
  9  8  1  0  0  0  0
 10  9  2  0  0  0  0
 11 10  1  0  0  0  0
 12 11  1  0  0  0  0
 13 12  1  0  0  0  0
 14 13  1  0  0  0  0
 15 14  1  0  0  0  0
 16 15  2  0  0  0  0
 17 15  1  0  0  0  0
 18 15  1  0  0  0  0
 19 18  1  0  0  0  0
 20 19  2  0  0  0  0
 21 19  1  0  0  0  0
 22 19  1  0  0  0  0
 23 11  2  0  0  0  0
 23  7  1  0  0  0  0
 24 23  1  0  0  0  0
 25  5  1  0  0  0  0
 26 25  1  0  0  0  0
 27 25  2  0  0  0  0
 27  2  1  0  0  0  0
  1 28  1  0  0  0  0
  1 29  1  0  0  0  0
  1 30  1  0  0  0  0
  4 31  1  0  0  0  0
  6 32  1  0  0  0  0
  6 33  1  0  0  0  0
  8 34  1  0  0  0  0
  9 35  1  0  0  0  0
 10 36  1  0  0  0  0
 12 37  1  0  0  0  0
 12 38  1  0  0  0  0
 13 39  1  0  0  0  0
 13 40  1  0  0  0  0
 17 41  1  0  0  0  0
 21 42  1  0  0  0  0
 22 43  1  0  0  0  0
 24 44  1  0  0  0  0
 24 45  1  0  0  0  0
 24 46  1  0  0  0  0
 26 47  1  0  0  0  0
 26 48  1  0  0  0  0
M  CHG  1   7   1
M  END
>  <energy>
63.880288478566648

$$$$
