4P95_MES_A_601
  1228              3D

 25 25  0  0  0  0  0  0  0  0999 V2000
   -2.5016   -0.9744    0.6879 O   0  0  0  0  0  0  0  0  0  0  0  0
   -1.7210   -1.4143   -0.4239 C   0  0  0  0  0  0  0  0  0  0  0  0
   -0.9888   -0.2916   -1.1486 C   0  0  0  0  0  0  0  0  0  0  0  0
   -0.5583    0.7597   -0.1581 N   0  3  0  0  0  0  0  0  0  0  0  0
   -0.1899    1.5369   -0.7219 H   0  0  0  0  0  0  0  0  0  0  0  0
   -1.7410    1.3195    0.6091 C   0  0  0  0  0  0  0  0  0  0  0  0
   -2.9325    0.3741    0.5557 C   0  0  0  0  0  0  0  0  0  0  0  0
    0.5904    0.2981    0.7188 C   0  0  0  0  0  0  0  0  0  0  0  0
    1.3579    1.4827    1.2941 C   0  0  0  0  0  0  0  0  0  0  0  0
    2.4625    2.2728    0.1424 S   0  0  0  0  0  0  0  0  0  0  0  0
    3.3866    1.2054   -0.2342 O   0  0  0  0  0  0  0  0  0  0  0  0
    1.5808    2.7357   -0.9267 O   0  0  0  0  0  0  0  0  0  0  0  0
    3.0573    3.3388    0.9473 O   0  5  0  0  0  0  0  0  0  0  0  0
   -2.3781   -1.9451   -1.1210 H   0  0  0  0  0  0  0  0  0  0  0  0
   -1.0057   -2.1495   -0.0399 H   0  0  0  0  0  0  0  0  0  0  0  0
   -1.6448    0.2151   -1.8656 H   0  0  0  0  0  0  0  0  0  0  0  0
   -0.1101   -0.6503   -1.6943 H   0  0  0  0  0  0  0  0  0  0  0  0
   -1.9885    2.2869    0.1598 H   0  0  0  0  0  0  0  0  0  0  0  0
   -1.4302    1.4891    1.6455 H   0  0  0  0  0  0  0  0  0  0  0  0
   -3.5031    0.4911   -0.3737 H   0  0  0  0  0  0  0  0  0  0  0  0
   -3.6175    0.5995    1.3794 H   0  0  0  0  0  0  0  0  0  0  0  0
    1.2400   -0.3402    0.1106 H   0  0  0  0  0  0  0  0  0  0  0  0
    0.1633   -0.3129    1.5214 H   0  0  0  0  0  0  0  0  0  0  0  0
    1.9805    1.1345    2.1268 H   0  0  0  0  0  0  0  0  0  0  0  0
    0.6939    2.2573    1.6895 H   0  0  0  0  0  0  0  0  0  0  0  0
  2  1  1  0  0  0  0
  3  2  1  0  0  0  0
  4  3  1  0  0  0  0
  4  5  1  0  0  0  0
  6  4  1  0  0  0  0
  7  6  1  0  0  0  0
  7  1  1  0  0  0  0
  8  4  1  0  0  0  0
  9  8  1  0  0  0  0
 10  9  1  0  0  0  0
 11 10  2  0  0  0  0
 12 10  2  0  0  0  0
 13 10  1  0  0  0  0
  2 14  1  0  0  0  0
  2 15  1  0  0  0  0
  3 16  1  0  0  0  0
  3 17  1  0  0  0  0
  6 18  1  0  0  0  0
  6 19  1  0  0  0  0
  7 20  1  0  0  0  0
  7 21  1  0  0  0  0
  8 22  1  0  0  0  0
  8 23  1  0  0  0  0
  9 24  1  0  0  0  0
  9 25  1  0  0  0  0
M  CHG  2   4   1  13  -1
M  END
>  <energy>
31.329586448801969

$$$$
