3G4M_2BP_A_91
  1228              3D

 15 16  0  0  0  0  0  0  0  0999 V2000
   -1.7394    1.1676    0.0286 N   0  0  0  0  0  0  0  0  0  0  0  0
   -1.9273    2.0604    0.4595 H   0  0  0  0  0  0  0  0  0  0  0  0
   -2.7110    0.1918   -0.0867 C   0  0  0  0  0  0  0  0  0  0  0  0
   -2.2038   -1.0198   -0.0578 N   0  0  0  0  0  0  0  0  0  0  0  0
   -0.8568   -0.8352    0.1191 C   0  0  0  0  0  0  0  0  0  0  0  0
    0.2076   -1.7168    0.2002 C   0  0  0  0  0  0  0  0  0  0  0  0
    1.4730   -1.2274    0.1548 N   0  0  0  0  0  0  0  0  0  0  0  0
    1.6685    0.1229    0.1651 C   0  0  0  0  0  0  0  0  0  0  0  0
    2.9893    0.5920    0.0050 N   0  0  0  0  0  0  0  0  0  0  0  0
    0.6819    1.0487    0.2751 N   0  0  0  0  0  0  0  0  0  0  0  0
   -0.5447    0.5078    0.2008 C   0  0  0  0  0  0  0  0  0  0  0  0
   -3.7210    0.4519   -0.3891 H   0  0  0  0  0  0  0  0  0  0  0  0
    0.0850   -2.7905    0.1793 H   0  0  0  0  0  0  0  0  0  0  0  0
    3.6552    0.0471    0.5458 H   0  0  0  0  0  0  0  0  0  0  0  0
    3.0585    1.5779    0.2426 H   0  0  0  0  0  0  0  0  0  0  0  0
  1  2  1  0  0  0  0
  3  1  1  0  0  0  0
  4  3  2  0  0  0  0
  5  4  1  0  0  0  0
  6  5  1  0  0  0  0
  7  6  2  0  0  0  0
  8  7  1  0  0  0  0
  9  8  1  0  0  0  0
 10  8  2  0  0  0  0
 11 10  1  0  0  0  0
 11  1  1  0  0  0  0
 11  5  2  0  0  0  0
  3 12  1  0  0  0  0
  6 13  1  0  0  0  0
  9 14  1  0  0  0  0
  9 15  1  0  0  0  0
M  END
>  <energy>
28.582994816087311

$$$$
