2ESJ_LIV_A_50
  1228              3D

107111  0  0  0  0  0  0  0  0999 V2000
   -2.7395   -8.0388    4.2561 C   0  0  0  0  0  0  0  0  0  0  0  0
   -3.7584   -7.7315    4.1161 H   0  0  0  0  0  0  0  0  0  0  0  0
   -3.0055   -8.7684    3.0545 O   0  0  0  0  0  0  0  0  0  0  0  0
   -2.9985  -10.1475    2.6559 C   0  0  0  0  0  0  0  0  0  0  0  0
   -3.1150  -10.7777    3.5417 H   0  0  0  0  0  0  0  0  0  0  0  0
   -4.2994  -10.1790    1.5594 C   0  0  0  0  0  0  0  0  0  0  0  0
   -4.7503   -9.1682    1.6788 H   0  0  0  0  0  0  0  0  0  0  0  0
   -3.8150  -10.3951    0.0467 C   0  0  0  0  0  0  0  0  0  0  0  0
   -4.1202  -10.4206   -1.0101 H   0  0  0  0  0  0  0  0  0  0  0  0
   -2.4060  -11.3505   -0.1938 C   0  0  0  0  0  0  0  0  0  0  0  0
   -3.0416  -11.6467   -1.0050 H   0  0  0  0  0  0  0  0  0  0  0  0
   -1.9626  -12.6685   -0.8708 N   0  0  0  0  0  0  0  0  0  0  0  0
   -1.8148  -11.7588    1.1460 C   0  0  0  0  0  0  0  0  0  0  0  0
   -1.6683  -10.5143    1.9714 C   0  0  0  0  0  0  0  0  0  0  0  0
   -1.5062   -9.6354    1.2150 H   0  0  0  0  0  0  0  0  0  0  0  0
   -0.6095  -10.3625    2.9559 N   0  0  0  0  0  0  0  0  0  0  0  0
   -3.9556   -8.8919   -0.2949 O   0  0  0  0  0  0  0  0  0  0  0  0
   -5.4273  -11.0462    1.8547 O   0  0  0  0  0  0  0  0  0  0  0  0
   -4.9619  -12.3660    2.0892 C   0  0  0  0  0  0  0  0  0  0  0  0
   -3.9475  -12.2154    1.8776 H   0  0  0  0  0  0  0  0  0  0  0  0
   -4.9890  -12.9080    3.4972 C   0  0  0  0  0  0  0  0  0  0  0  0
   -5.7536  -13.1955    4.1417 H   0  0  0  0  0  0  0  0  0  0  0  0
   -4.9645  -11.8153    4.3724 O   0  0  0  0  0  0  0  0  0  0  0  0
   -4.9562  -14.4179    3.1543 C   0  0  0  0  0  0  0  0  0  0  0  0
   -5.7619  -14.5864    2.5007 H   0  0  0  0  0  0  0  0  0  0  0  0
   -4.2823  -14.6184    1.7656 C   0  0  0  0  0  0  0  0  0  0  0  0
   -3.6379  -14.0382    1.1417 H   0  0  0  0  0  0  0  0  0  0  0  0
   -5.1055  -13.4260    1.1538 O   0  0  0  0  0  0  0  0  0  0  0  0
   -2.7743  -14.9719    2.2029 C   0  0  0  0  0  0  0  0  0  0  0  0
   -2.7039  -16.3483    2.5457 O   0  0  0  0  0  0  0  0  0  0  0  0
   -5.9155  -15.2335    3.9260 O   0  0  0  0  0  0  0  0  0  0  0  0
   -7.3638  -14.8625    3.6554 C   0  0  0  0  0  0  0  0  0  0  0  0
   -7.8587  -15.6081    4.2780 H   0  0  0  0  0  0  0  0  0  0  0  0
   -7.9824  -15.0761    2.2072 C   0  0  0  0  0  0  0  0  0  0  0  0
   -9.1148  -15.5687    2.3904 H   0  0  0  0  0  0  0  0  0  0  0  0
   -8.5797  -13.7348    1.5565 C   0  0  0  0  0  0  0  0  0  0  0  0
   -7.7307  -13.0289    1.1861 H   0  0  0  0  0  0  0  0  0  0  0  0
   -9.6885  -13.2515    2.7880 C   0  0  0  0  0  0  0  0  0  0  0  0
  -10.4776  -14.0430    2.6279 H   0  0  0  0  0  0  0  0  0  0  0  0
  -10.3725  -12.0526    2.4187 O   0  0  0  0  0  0  0  0  0  0  0  0
  -11.2845  -11.4394    3.3460 C   0  0  0  0  0  0  0  0  0  0  0  0
  -11.5410  -12.1414    4.1687 H   0  0  0  0  0  0  0  0  0  0  0  0
  -12.6473  -10.9350    2.7178 C   0  0  0  0  0  0  0  0  0  0  0  0
  -13.7181  -10.8406    2.6349 H   0  0  0  0  0  0  0  0  0  0  0  0
  -13.2732   -9.9702    4.0026 C   0  0  0  0  0  0  0  0  0  0  0  0
  -13.6235   -9.0042    3.5087 H   0  0  0  0  0  0  0  0  0  0  0  0
  -12.2597   -9.3793    4.9949 C   0  0  0  0  0  0  0  0  0  0  0  0
  -11.3215   -9.2685    5.5798 H   0  0  0  0  0  0  0  0  0  0  0  0
  -11.2610   -9.1021    3.8186 C   0  0  0  0  0  0  0  0  0  0  0  0
  -11.7522   -9.2567    2.8908 H   0  0  0  0  0  0  0  0  0  0  0  0
  -10.7137   -7.9033    3.1346 C   0  0  0  0  0  0  0  0  0  0  0  0
  -10.5503   -6.7565    3.9026 O   0  0  0  0  0  0  0  0  0  0  0  0
  -10.4725  -10.3415    3.8458 O   0  0  0  0  0  0  0  0  0  0  0  0
  -13.0150   -8.5686    5.8600 O   0  0  0  0  0  0  0  0  0  0  0  0
  -14.4645  -10.4432    4.5727 O   0  0  0  0  0  0  0  0  0  0  0  0
  -13.0121  -11.9732    1.8153 O   0  0  0  0  0  0  0  0  0  0  0  0
   -9.0939  -13.4905    4.2248 C   0  0  0  0  0  0  0  0  0  0  0  0
   -9.4382  -14.5234    4.2976 H   0  0  0  0  0  0  0  0  0  0  0  0
   -7.6694  -13.5323    4.1344 O   0  0  0  0  0  0  0  0  0  0  0  0
   -9.5566  -13.1855    5.6584 C   0  0  0  0  0  0  0  0  0  0  0  0
   -9.5375  -11.8541    6.2015 N   0  0  0  0  0  0  0  0  0  0  0  0
   -9.5279  -13.6741    0.4368 O   0  0  0  0  0  0  0  0  0  0  0  0
   -7.4504  -16.2915    1.6217 N   0  0  0  0  0  0  0  0  0  0  0  0
   -1.8635   -6.8283    3.8899 C   0  0  0  0  0  0  0  0  0  0  0  0
   -2.5864   -6.1768    3.3951 H   0  0  0  0  0  0  0  0  0  0  0  0
   -0.8222   -7.1581    2.9237 N   0  0  0  0  0  0  0  0  0  0  0  0
   -1.2123   -6.0213    4.9944 C   0  0  0  0  0  0  0  0  0  0  0  0
   -2.1365   -5.7943    6.1593 C   0  0  0  0  0  0  0  0  0  0  0  0
   -2.3285   -4.7270    6.0942 H   0  0  0  0  0  0  0  0  0  0  0  0
   -1.4814   -5.9507    7.4178 O   0  0  0  0  0  0  0  0  0  0  0  0
   -3.4224   -6.6183    6.1672 C   0  0  0  0  0  0  0  0  0  0  0  0
   -3.7015   -7.1567    7.0695 H   0  0  0  0  0  0  0  0  0  0  0  0
   -3.1645   -7.9986    5.6566 O   0  0  0  0  0  0  0  0  0  0  0  0
   -4.4615   -5.5708    6.8049 C   0  0  0  0  0  0  0  0  0  0  0  0
   -4.5662   -4.3326    6.0880 O   0  0  0  0  0  0  0  0  0  0  0  0
   -1.5586  -12.3914   -1.7836 H   0  0  0  0  0  0  0  0  0  0  0  0
   -2.7005  -13.3266   -1.0910 H   0  0  0  0  0  0  0  0  0  0  0  0
   -2.3371  -12.4994    1.7494 H   0  0  0  0  0  0  0  0  0  0  0  0
   -0.8514  -12.3532    1.0986 H   0  0  0  0  0  0  0  0  0  0  0  0
   -0.1350   -9.4783    2.8074 H   0  0  0  0  0  0  0  0  0  0  0  0
    0.1705  -11.0229    2.9881 H   0  0  0  0  0  0  0  0  0  0  0  0
   -4.2814   -8.7739   -1.1901 H   0  0  0  0  0  0  0  0  0  0  0  0
   -5.8709  -11.4282    4.3120 H   0  0  0  0  0  0  0  0  0  0  0  0
   -2.3962  -14.3907    3.0677 H   0  0  0  0  0  0  0  0  0  0  0  0
   -2.0381  -14.8434    1.3821 H   0  0  0  0  0  0  0  0  0  0  0  0
   -1.7578  -16.6009    2.5514 H   0  0  0  0  0  0  0  0  0  0  0  0
  -11.4334   -7.6290    2.3269 H   0  0  0  0  0  0  0  0  0  0  0  0
   -9.8054   -8.1589    2.5688 H   0  0  0  0  0  0  0  0  0  0  0  0
  -10.7762   -6.0262    3.2777 H   0  0  0  0  0  0  0  0  0  0  0  0
  -12.8216   -8.9090    6.7843 H   0  0  0  0  0  0  0  0  0  0  0  0
  -15.1596   -9.7467    4.4492 H   0  0  0  0  0  0  0  0  0  0  0  0
  -13.2620  -11.5132    0.9808 H   0  0  0  0  0  0  0  0  0  0  0  0
  -10.5498  -13.6223    5.8041 H   0  0  0  0  0  0  0  0  0  0  0  0
   -8.9086  -13.7720    6.3179 H   0  0  0  0  0  0  0  0  0  0  0  0
  -10.4815  -11.6127    6.5100 H   0  0  0  0  0  0  0  0  0  0  0  0
   -9.2768  -11.1697    5.5008 H   0  0  0  0  0  0  0  0  0  0  0  0
   -9.6123  -12.7009    0.2935 H   0  0  0  0  0  0  0  0  0  0  0  0
   -6.4228  -16.2954    1.4207 H   0  0  0  0  0  0  0  0  0  0  0  0
   -7.9432  -16.8436    1.0406 H   0  0  0  0  0  0  0  0  0  0  0  0
   -1.2171   -7.8084    2.2399 H   0  0  0  0  0  0  0  0  0  0  0  0
   -0.6095   -6.3166    2.3906 H   0  0  0  0  0  0  0  0  0  0  0  0
   -1.0521   -5.0307    4.5288 H   0  0  0  0  0  0  0  0  0  0  0  0
   -0.2074   -6.3124    5.3329 H   0  0  0  0  0  0  0  0  0  0  0  0
   -1.3476   -5.0642    7.7560 H   0  0  0  0  0  0  0  0  0  0  0  0
   -4.0314   -5.2958    7.8056 H   0  0  0  0  0  0  0  0  0  0  0  0
   -5.4694   -5.9284    7.0130 H   0  0  0  0  0  0  0  0  0  0  0  0
   -3.8538   -3.7341    6.3935 H   0  0  0  0  0  0  0  0  0  0  0  0
  1 64  1  0  0  0  0
  1 73  1  0  0  0  0
  1  3  1  0  0  0  0
  1  2  1  0  0  0  0
  3  4  1  0  0  0  0
  4  5  1  0  0  0  0
  4  6  1  0  0  0  0
  6  8  1  0  0  0  0
  6 18  1  0  0  0  0
  6  7  1  0  0  0  0
  8 10  1  0  0  0  0
  8 17  1  0  0  0  0
  8  9  1  0  0  0  0
 10 11  1  0  0  0  0
 10 12  1  0  0  0  0
 10 13  1  0  0  0  0
 12 76  1  0  0  0  0
 12 77  1  0  0  0  0
 13 14  1  0  0  0  0
 13 78  1  0  0  0  0
 13 79  1  0  0  0  0
 14 15  1  0  0  0  0
 14  4  1  0  0  0  0
 14 16  1  0  0  0  0
 16 80  1  0  0  0  0
 16 81  1  0  0  0  0
 17 82  1  0  0  0  0
 18 19  1  0  0  0  0
 19 20  1  0  0  0  0
 19 21  1  0  0  0  0
 19 28  1  0  0  0  0
 21 24  1  0  0  0  0
 21 23  1  0  0  0  0
 21 22  1  0  0  0  0
 23 83  1  0  0  0  0
 24 25  1  0  0  0  0
 24 26  1  0  0  0  0
 24 31  1  0  0  0  0
 26 28  1  0  0  0  0
 26 29  1  0  0  0  0
 26 27  1  0  0  0  0
 29 30  1  0  0  0  0
 29 84  1  0  0  0  0
 29 85  1  0  0  0  0
 30 86  1  0  0  0  0
 32 59  1  0  0  0  0
 32 33  1  0  0  0  0
 32 31  1  0  0  0  0
 34 32  1  0  0  0  0
 34 63  1  0  0  0  0
 34 35  1  0  0  0  0
 36 34  1  0  0  0  0
 36 62  1  0  0  0  0
 36 37  1  0  0  0  0
 38 36  1  0  0  0  0
 38 39  1  0  0  0  0
 38 40  1  0  0  0  0
 41 43  1  0  0  0  0
 41 53  1  0  0  0  0
 41 42  1  0  0  0  0
 41 40  1  0  0  0  0
 43 44  1  0  0  0  0
 43 45  1  0  0  0  0
 43 56  1  0  0  0  0
 45 47  1  0  0  0  0
 45 55  1  0  0  0  0
 45 46  1  0  0  0  0
 47 48  1  0  0  0  0
 47 49  1  0  0  0  0
 47 54  1  0  0  0  0
 49 53  1  0  0  0  0
 49 51  1  0  0  0  0
 49 50  1  0  0  0  0
 51 52  1  0  0  0  0
 51 87  1  0  0  0  0
 51 88  1  0  0  0  0
 52 89  1  0  0  0  0
 54 90  1  0  0  0  0
 55 91  1  0  0  0  0
 56 92  1  0  0  0  0
 57 38  1  0  0  0  0
 57 58  1  0  0  0  0
 57 59  1  0  0  0  0
 57 60  1  0  0  0  0
 60 61  1  0  0  0  0
 60 93  1  0  0  0  0
 60 94  1  0  0  0  0
 61 95  1  0  0  0  0
 61 96  1  0  0  0  0
 62 97  1  0  0  0  0
 63 98  1  0  0  0  0
 63 99  1  0  0  0  0
 64 67  1  0  0  0  0
 64 66  1  0  0  0  0
 64 65  1  0  0  0  0
 66100  1  0  0  0  0
 66101  1  0  0  0  0
 67 68  1  0  0  0  0
 67102  1  0  0  0  0
 67103  1  0  0  0  0
 68 69  1  0  0  0  0
 68 70  1  0  0  0  0
 68 71  1  0  0  0  0
 70104  1  0  0  0  0
 71 73  1  0  0  0  0
 71 74  1  0  0  0  0
 71 72  1  0  0  0  0
 74 75  1  0  0  0  0
 74105  1  0  0  0  0
 74106  1  0  0  0  0
 75107  1  0  0  0  0
M  END
>  <energy>
1147.0418303558949

$$$$
