4P20_AKN_A_101
  1228              3D

 83 85  0  0  0  0  0  0  0  0999 V2000
    1.2055    1.0759    6.7200 C   0  0  0  0  0  0  0  0  0  0  0  0
    0.2143    0.6541    6.5615 H   0  0  0  0  0  0  0  0  0  0  0  0
    1.1268    2.0541    7.9022 C   0  0  0  0  0  0  0  0  0  0  0  0
    0.7539    1.5258    8.7992 H   0  0  0  0  0  0  0  0  0  0  0  0
    2.5135    2.6133    8.1888 C   0  0  0  0  0  0  0  0  0  0  0  0
    2.8652    3.2100    7.3398 H   0  0  0  0  0  0  0  0  0  0  0  0
    3.4600    1.4560    8.4996 C   0  0  0  0  0  0  0  0  0  0  0  0
    3.2931    1.1087    9.5164 H   0  0  0  0  0  0  0  0  0  0  0  0
    3.3315    0.2569    7.5280 C   0  0  0  0  0  0  0  0  0  0  0  0
    3.9019    0.4376    6.6062 H   0  0  0  0  0  0  0  0  0  0  0  0
    3.9216   -1.0134    8.1930 C   0  0  0  0  0  0  0  0  0  0  0  0
    3.0922   -1.5411    9.2818 N   0  0  0  0  0  0  0  0  0  0  0  0
    1.9878   -0.0559    7.1457 O   0  0  0  0  0  0  0  0  0  0  0  0
    4.7963    1.9606    8.4789 O   0  0  0  0  0  0  0  0  0  0  0  0
    2.4521    3.5134    9.2991 O   0  0  0  0  0  0  0  0  0  0  0  0
    0.1919    3.0892    7.6340 O   0  0  0  0  0  0  0  0  0  0  0  0
    1.7395    1.6314    5.5152 O   0  0  0  0  0  0  0  0  0  0  0  0
    0.8847    2.2099    4.5046 C   0  0  0  0  0  0  0  0  0  0  0  0
    1.2518    1.8047    3.5494 H   0  0  0  0  0  0  0  0  0  0  0  0
    1.1226    3.7244    4.5007 C   0  0  0  0  0  0  0  0  0  0  0  0
    0.8942    4.1303    5.4866 H   0  0  0  0  0  0  0  0  0  0  0  0
    0.2445    4.4093    3.4524 C   0  0  0  0  0  0  0  0  0  0  0  0
   -1.2360    4.1717    3.7563 C   0  0  0  0  0  0  0  0  0  0  0  0
   -1.4204    4.5598    4.7617 H   0  0  0  0  0  0  0  0  0  0  0  0
   -2.0866    4.9822    2.8872 N   0  0  0  0  0  0  0  0  0  0  0  0
   -2.5608    4.5459    1.6638 C   0  0  0  0  0  0  0  0  0  0  0  0
   -1.8551    4.3677    0.6694 O   0  0  0  0  0  0  0  0  0  0  0  0
   -4.0711    4.3511    1.6548 C   0  0  0  0  0  0  0  0  0  0  0  0
   -4.4595    4.5448    2.6595 H   0  0  0  0  0  0  0  0  0  0  0  0
   -4.4633    2.9214    1.2494 C   0  0  0  0  0  0  0  0  0  0  0  0
   -5.1982    2.7592   -0.0829 C   0  0  0  0  0  0  0  0  0  0  0  0
   -4.2753    2.7450   -1.2127 N   0  0  0  0  0  0  0  0  0  0  0  0
   -4.6243    5.3477    0.8146 O   0  0  0  0  0  0  0  0  0  0  0  0
   -1.5735    2.6659    3.7358 C   0  0  0  0  0  0  0  0  0  0  0  0
   -1.4404    2.3011    2.7097 H   0  0  0  0  0  0  0  0  0  0  0  0
   -0.6085    1.8513    4.6153 C   0  0  0  0  0  0  0  0  0  0  0  0
   -0.9213    1.9928    5.6481 H   0  0  0  0  0  0  0  0  0  0  0  0
   -0.7040    0.4627    4.2700 O   0  0  0  0  0  0  0  0  0  0  0  0
   -2.9874    2.5195    3.9782 O   0  0  0  0  0  0  0  0  0  0  0  0
   -3.5788    1.9663    5.1624 C   0  0  0  0  0  0  0  0  0  0  0  0
   -4.5368    1.5789    4.7926 H   0  0  0  0  0  0  0  0  0  0  0  0
   -3.9119    3.0576    6.2074 C   0  0  0  0  0  0  0  0  0  0  0  0
   -4.6110    3.7705    5.7543 H   0  0  0  0  0  0  0  0  0  0  0  0
   -2.7466    3.8123    6.5259 O   0  0  0  0  0  0  0  0  0  0  0  0
   -4.4527    2.4925    7.5352 C   0  0  0  0  0  0  0  0  0  0  0  0
   -3.7234    2.6512    8.3440 H   0  0  0  0  0  0  0  0  0  0  0  0
   -5.6759    3.1998    7.9151 N   0  0  0  0  0  0  0  0  0  0  0  0
   -4.7216    0.9910    7.4128 C   0  0  0  0  0  0  0  0  0  0  0  0
   -5.5373    0.7832    6.7121 H   0  0  0  0  0  0  0  0  0  0  0  0
   -5.1138    0.4629    8.6809 O   0  0  0  0  0  0  0  0  0  0  0  0
   -3.4365    0.3078    6.9369 C   0  0  0  0  0  0  0  0  0  0  0  0
   -2.6565    0.4732    7.6902 H   0  0  0  0  0  0  0  0  0  0  0  0
   -2.9148    0.8441    5.7180 O   0  0  0  0  0  0  0  0  0  0  0  0
   -3.5809   -1.1977    6.7566 C   0  0  0  0  0  0  0  0  0  0  0  0
   -4.4250   -1.4985    5.6496 O   0  0  0  0  0  0  0  0  0  0  0  0
    2.5210    4.0470    4.2022 N   0  0  0  0  0  0  0  0  0  0  0  0
    4.0572   -1.7925    7.4374 H   0  0  0  0  0  0  0  0  0  0  0  0
    4.9081   -0.7805    8.6071 H   0  0  0  0  0  0  0  0  0  0  0  0
    3.2781   -2.5368    9.3972 H   0  0  0  0  0  0  0  0  0  0  0  0
    2.1013   -1.4681    9.0510 H   0  0  0  0  0  0  0  0  0  0  0  0
    5.0195    2.1697    7.5538 H   0  0  0  0  0  0  0  0  0  0  0  0
    2.7310    3.0463   10.1061 H   0  0  0  0  0  0  0  0  0  0  0  0
    0.6866    3.9200    7.5295 H   0  0  0  0  0  0  0  0  0  0  0  0
    0.4499    5.4870    3.4371 H   0  0  0  0  0  0  0  0  0  0  0  0
    0.4730    4.0411    2.4424 H   0  0  0  0  0  0  0  0  0  0  0  0
   -2.0563    5.9853    3.0408 H   0  0  0  0  0  0  0  0  0  0  0  0
   -5.1202    2.5238    2.0347 H   0  0  0  0  0  0  0  0  0  0  0  0
   -3.5865    2.2622    1.2608 H   0  0  0  0  0  0  0  0  0  0  0  0
   -5.7465    1.8098   -0.0754 H   0  0  0  0  0  0  0  0  0  0  0  0
   -5.9502    3.5416   -0.2267 H   0  0  0  0  0  0  0  0  0  0  0  0
   -3.5797    2.0115   -1.0757 H   0  0  0  0  0  0  0  0  0  0  0  0
   -3.7604    3.6242   -1.2485 H   0  0  0  0  0  0  0  0  0  0  0  0
   -4.1373    5.3498   -0.0265 H   0  0  0  0  0  0  0  0  0  0  0  0
   -1.6106    0.1751    4.4588 H   0  0  0  0  0  0  0  0  0  0  0  0
   -2.1117    3.2115    6.9465 H   0  0  0  0  0  0  0  0  0  0  0  0
   -5.4550    4.1854    8.0589 H   0  0  0  0  0  0  0  0  0  0  0  0
   -5.9929    2.8593    8.8216 H   0  0  0  0  0  0  0  0  0  0  0  0
   -4.3866    0.6100    9.3106 H   0  0  0  0  0  0  0  0  0  0  0  0
   -4.0121   -1.6504    7.6512 H   0  0  0  0  0  0  0  0  0  0  0  0
   -2.5997   -1.6565    6.5889 H   0  0  0  0  0  0  0  0  0  0  0  0
   -3.9015   -1.3911    4.8334 H   0  0  0  0  0  0  0  0  0  0  0  0
    3.1353    3.3353    4.5983 H   0  0  0  0  0  0  0  0  0  0  0  0
    2.7683    4.9162    4.6765 H   0  0  0  0  0  0  0  0  0  0  0  0
  1  2  1  0  0  0  0
  3  1  1  0  0  0  0
  3  4  1  0  0  0  0
  5  3  1  0  0  0  0
  5  6  1  0  0  0  0
  7  5  1  0  0  0  0
  7  8  1  0  0  0  0
  9  7  1  0  0  0  0
  9 10  1  0  0  0  0
 11  9  1  0  0  0  0
 12 11  1  0  0  0  0
 13  9  1  0  0  0  0
 13  1  1  0  0  0  0
 14  7  1  0  0  0  0
 15  5  1  0  0  0  0
 16  3  1  0  0  0  0
 17  1  1  0  0  0  0
 18 17  1  0  0  0  0
 18 19  1  0  0  0  0
 20 18  1  0  0  0  0
 20 21  1  0  0  0  0
 22 20  1  0  0  0  0
 23 22  1  0  0  0  0
 23 24  1  0  0  0  0
 25 23  1  0  0  0  0
 26 25  1  0  0  0  0
 27 26  2  0  0  0  0
 28 26  1  0  0  0  0
 28 29  1  0  0  0  0
 30 28  1  0  0  0  0
 31 30  1  0  0  0  0
 32 31  1  0  0  0  0
 33 28  1  0  0  0  0
 34 23  1  0  0  0  0
 34 35  1  0  0  0  0
 36 34  1  0  0  0  0
 36 37  1  0  0  0  0
 36 18  1  0  0  0  0
 38 36  1  0  0  0  0
 39 34  1  0  0  0  0
 40 39  1  0  0  0  0
 40 41  1  0  0  0  0
 42 40  1  0  0  0  0
 42 43  1  0  0  0  0
 44 42  1  0  0  0  0
 45 42  1  0  0  0  0
 45 46  1  0  0  0  0
 47 45  1  0  0  0  0
 48 45  1  0  0  0  0
 48 49  1  0  0  0  0
 50 48  1  0  0  0  0
 51 48  1  0  0  0  0
 51 52  1  0  0  0  0
 53 51  1  0  0  0  0
 53 40  1  0  0  0  0
 54 51  1  0  0  0  0
 55 54  1  0  0  0  0
 56 20  1  0  0  0  0
 11 57  1  0  0  0  0
 11 58  1  0  0  0  0
 12 59  1  0  0  0  0
 12 60  1  0  0  0  0
 14 61  1  0  0  0  0
 15 62  1  0  0  0  0
 16 63  1  0  0  0  0
 22 64  1  0  0  0  0
 22 65  1  0  0  0  0
 25 66  1  0  0  0  0
 30 67  1  0  0  0  0
 30 68  1  0  0  0  0
 31 69  1  0  0  0  0
 31 70  1  0  0  0  0
 32 71  1  0  0  0  0
 32 72  1  0  0  0  0
 33 73  1  0  0  0  0
 38 74  1  0  0  0  0
 44 75  1  0  0  0  0
 47 76  1  0  0  0  0
 47 77  1  0  0  0  0
 50 78  1  0  0  0  0
 54 79  1  0  0  0  0
 54 80  1  0  0  0  0
 55 81  1  0  0  0  0
 56 82  1  0  0  0  0
 56 83  1  0  0  0  0
M  END
>  <energy>
154.35138104894247

$$$$
