3DVV_RIO_A_27
  1228              3D

 65 67  0  0  0  0  0  0  0  0999 V2000
    4.1132   -4.0525   -4.6188 O   0  0  0  0  0  0  0  0  0  0  0  0
    3.1304   -3.2076   -5.2075 C   0  0  0  0  0  0  0  0  0  0  0  0
    1.7670   -3.6512   -4.7198 C   0  0  0  0  0  0  0  0  0  0  0  0
    1.6730   -4.7448   -4.7641 H   0  0  0  0  0  0  0  0  0  0  0  0
    1.6723   -3.2620   -3.3437 O   0  0  0  0  0  0  0  0  0  0  0  0
    0.3021   -2.9872   -3.0551 C   0  0  0  0  0  0  0  0  0  0  0  0
   -0.0184   -3.8145   -2.4122 H   0  0  0  0  0  0  0  0  0  0  0  0
    0.1213   -1.8774   -2.2218 O   0  0  0  0  0  0  0  0  0  0  0  0
    0.3486   -0.4923   -2.4883 C   0  0  0  0  0  0  0  0  0  0  0  0
   -0.3937   -0.1406   -3.2203 H   0  0  0  0  0  0  0  0  0  0  0  0
    1.7818   -0.1511   -2.9386 C   0  0  0  0  0  0  0  0  0  0  0  0
    2.4179   -1.0348   -2.8572 H   0  0  0  0  0  0  0  0  0  0  0  0
    1.7869    0.1777   -4.3305 O   0  0  0  0  0  0  0  0  0  0  0  0
    2.4495    1.0106   -2.1785 C   0  0  0  0  0  0  0  0  0  0  0  0
    3.1730    1.4996   -2.8461 H   0  0  0  0  0  0  0  0  0  0  0  0
    3.2401    0.4744   -1.0643 N   0  0  0  0  0  0  0  0  0  0  0  0
    1.4498    2.0954   -1.7473 C   0  0  0  0  0  0  0  0  0  0  0  0
    0.2714    1.5790   -0.9017 C   0  0  0  0  0  0  0  0  0  0  0  0
   -0.6121    2.1667   -1.1777 H   0  0  0  0  0  0  0  0  0  0  0  0
    0.5393    1.8935    0.5167 N   0  0  0  0  0  0  0  0  0  0  0  0
    0.0017    0.0780   -1.0877 C   0  0  0  0  0  0  0  0  0  0  0  0
    0.6146   -0.4705   -0.3634 H   0  0  0  0  0  0  0  0  0  0  0  0
   -1.3262   -0.4180   -0.8425 O   0  0  0  0  0  0  0  0  0  0  0  0
   -2.2721    0.4044   -0.1512 C   0  0  0  0  0  0  0  0  0  0  0  0
   -3.3283    0.2611    0.1937 H   0  0  0  0  0  0  0  0  0  0  0  0
   -2.1507   -0.3840    1.0982 O   0  0  0  0  0  0  0  0  0  0  0  0
   -2.8391   -1.8656    0.9638 C   0  0  0  0  0  0  0  0  0  0  0  0
   -3.6588   -1.8035    1.6966 H   0  0  0  0  0  0  0  0  0  0  0  0
   -1.7902   -2.8856    1.4778 C   0  0  0  0  0  0  0  0  0  0  0  0
   -2.2978   -3.7645    2.5340 N   0  0  0  0  0  0  0  0  0  0  0  0
   -3.4850   -2.0714   -0.5217 C   0  0  0  0  0  0  0  0  0  0  0  0
   -3.7869   -1.1441   -0.0969 H   0  0  0  0  0  0  0  0  0  0  0  0
   -2.3040   -2.4691   -1.2267 O   0  0  0  0  0  0  0  0  0  0  0  0
   -4.0440   -1.0375   -1.6308 C   0  0  0  0  0  0  0  0  0  0  0  0
   -5.1102   -0.8304   -1.4559 H   0  0  0  0  0  0  0  0  0  0  0  0
   -3.9536   -1.5413   -2.9632 O   0  0  0  0  0  0  0  0  0  0  0  0
   -3.1699    0.4711   -1.4945 C   0  0  0  0  0  0  0  0  0  0  0  0
   -2.5381    0.5525   -2.3879 H   0  0  0  0  0  0  0  0  0  0  0  0
   -4.0768    1.6145   -1.5886 N   0  0  0  0  0  0  0  0  0  0  0  0
   -0.4982   -3.0789   -4.3482 C   0  0  0  0  0  0  0  0  0  0  0  0
   -1.3131   -2.3559   -4.4506 H   0  0  0  0  0  0  0  0  0  0  0  0
   -1.0517   -4.4013   -4.3985 O   0  0  0  0  0  0  0  0  0  0  0  0
    0.5904   -2.9540   -5.3978 C   0  0  0  0  0  0  0  0  0  0  0  0
    0.8121   -1.9018   -5.5912 H   0  0  0  0  0  0  0  0  0  0  0  0
    0.2313   -3.5579   -6.6304 O   0  0  0  0  0  0  0  0  0  0  0  0
    4.6161   -4.4661   -5.3405 H   0  0  0  0  0  0  0  0  0  0  0  0
    3.3516   -2.1803   -4.9010 H   0  0  0  0  0  0  0  0  0  0  0  0
    3.2034   -3.2693   -6.2966 H   0  0  0  0  0  0  0  0  0  0  0  0
    1.0042    0.7387   -4.5265 H   0  0  0  0  0  0  0  0  0  0  0  0
    3.8049    1.2129   -0.6470 H   0  0  0  0  0  0  0  0  0  0  0  0
    2.6344    0.1215   -0.3289 H   0  0  0  0  0  0  0  0  0  0  0  0
    1.0339    2.5546   -2.6547 H   0  0  0  0  0  0  0  0  0  0  0  0
    1.9924    2.9029   -1.2333 H   0  0  0  0  0  0  0  0  0  0  0  0
    1.5447    1.8668    0.6966 H   0  0  0  0  0  0  0  0  0  0  0  0
    0.1400    1.1790    1.1224 H   0  0  0  0  0  0  0  0  0  0  0  0
   -1.3673   -3.5111    0.6855 H   0  0  0  0  0  0  0  0  0  0  0  0
   -0.9420   -2.3408    1.9065 H   0  0  0  0  0  0  0  0  0  0  0  0
   -2.0381   -4.7318    2.3386 H   0  0  0  0  0  0  0  0  0  0  0  0
   -3.3152   -3.7473    2.5782 H   0  0  0  0  0  0  0  0  0  0  0  0
   -2.2541   -3.4265   -1.1860 H   0  0  0  0  0  0  0  0  0  0  0  0
   -3.5299   -0.8819   -3.5172 H   0  0  0  0  0  0  0  0  0  0  0  0
   -4.8193    1.5587   -0.8859 H   0  0  0  0  0  0  0  0  0  0  0  0
   -3.5710    2.4756   -1.4289 H   0  0  0  0  0  0  0  0  0  0  0  0
   -1.6225   -4.4604   -5.1827 H   0  0  0  0  0  0  0  0  0  0  0  0
    0.5719   -4.4685   -6.6449 H   0  0  0  0  0  0  0  0  0  0  0  0
  2  1  1  0  0  0  0
  3  2  1  0  0  0  0
  3  4  1  0  0  0  0
  5  3  1  0  0  0  0
  6  5  1  0  0  0  0
  6  7  1  0  0  0  0
  8  6  1  0  0  0  0
  9  8  1  0  0  0  0
  9 10  1  0  0  0  0
 11  9  1  0  0  0  0
 11 12  1  0  0  0  0
 13 11  1  0  0  0  0
 14 11  1  0  0  0  0
 14 15  1  0  0  0  0
 16 14  1  0  0  0  0
 17 14  1  0  0  0  0
 18 17  1  0  0  0  0
 18 19  1  0  0  0  0
 20 18  1  0  0  0  0
 21 18  1  0  0  0  0
 21 22  1  0  0  0  0
 21  9  1  0  0  0  0
 23 21  1  0  0  0  0
 24 23  1  0  0  0  0
 24 25  1  0  0  0  0
 26 24  1  0  0  0  0
 27 26  1  0  0  0  0
 27 28  1  0  0  0  0
 29 27  1  0  0  0  0
 30 29  1  0  0  0  0
 31 27  1  0  0  0  0
 31 32  1  0  0  0  0
 33 31  1  0  0  0  0
 34 31  1  0  0  0  0
 34 35  1  0  0  0  0
 36 34  1  0  0  0  0
 37 34  1  0  0  0  0
 37 38  1  0  0  0  0
 37 24  1  0  0  0  0
 39 37  1  0  0  0  0
 40  6  1  0  0  0  0
 40 41  1  0  0  0  0
 42 40  1  0  0  0  0
 43 40  1  0  0  0  0
 43 44  1  0  0  0  0
 43  3  1  0  0  0  0
 45 43  1  0  0  0  0
  1 46  1  0  0  0  0
  2 47  1  0  0  0  0
  2 48  1  0  0  0  0
 13 49  1  0  0  0  0
 16 50  1  0  0  0  0
 16 51  1  0  0  0  0
 17 52  1  0  0  0  0
 17 53  1  0  0  0  0
 20 54  1  0  0  0  0
 20 55  1  0  0  0  0
 29 56  1  0  0  0  0
 29 57  1  0  0  0  0
 30 58  1  0  0  0  0
 30 59  1  0  0  0  0
 33 60  1  0  0  0  0
 36 61  1  0  0  0  0
 39 62  1  0  0  0  0
 39 63  1  0  0  0  0
 42 64  1  0  0  0  0
 45 65  1  0  0  0  0
M  END
>  <energy>
361.89305591797705

$$$$
