4LVY_LYA_A_101
  1228              3D

 37 39  0  0  0  0  0  0  0  0999 V2000
    3.6983   -3.4710   -0.6051 C   0  0  0  0  0  0  0  0  0  0  0  0
    3.6890   -4.5955    0.2333 C   0  0  0  0  0  0  0  0  0  0  0  0
    4.8085   -4.9190    1.0006 C   0  0  0  0  0  0  0  0  0  0  0  0
    5.9470   -4.1155    0.9244 C   0  0  0  0  0  0  0  0  0  0  0  0
    5.9741   -2.9907    0.0984 C   0  0  0  0  0  0  0  0  0  0  0  0
    4.8511   -2.6738   -0.6637 C   0  0  0  0  0  0  0  0  0  0  0  0
    7.0511   -4.3274    1.8738 C   0  0  0  0  0  0  0  0  0  0  0  0
    7.3621   -3.4401    2.6605 O   0  0  0  0  0  0  0  0  0  0  0  0
    7.6512   -5.5647    1.7949 N   0  0  0  0  0  0  0  0  0  0  0  0
    2.4537   -3.0593   -1.3562 C   0  0  0  0  0  0  0  0  0  0  0  0
    1.4230   -2.2869   -0.5206 C   0  0  0  0  0  0  0  0  0  0  0  0
    1.9265   -1.0160    0.0864 C   0  0  0  0  0  0  0  0  0  0  0  0
    2.2590   -0.8395    1.4250 C   0  0  0  0  0  0  0  0  0  0  0  0
    2.7888    0.4184    1.5896 N   0  0  0  0  0  0  0  0  0  0  0  0
    3.0640    0.8253    2.4733 H   0  0  0  0  0  0  0  0  0  0  0  0
    2.6500    1.0806    0.4147 C   0  0  0  0  0  0  0  0  0  0  0  0
    2.2502    0.2096   -0.5669 C   0  0  0  0  0  0  0  0  0  0  0  0
    2.0612    0.7100   -1.9247 C   0  0  0  0  0  0  0  0  0  0  0  0
    1.5560    0.0134   -2.7974 O   0  0  0  0  0  0  0  0  0  0  0  0
    2.5253    2.0119   -2.1496 N   0  0  0  0  0  0  0  0  0  0  0  0
    3.0090    2.7444   -1.1655 C   0  0  0  0  0  0  0  0  0  0  0  0
    3.0973    2.3165    0.1531 N   0  0  0  0  0  0  0  0  0  0  0  0
    3.5287    2.9036    0.8597 H   0  0  0  0  0  0  0  0  0  0  0  0
    3.4695    4.0338   -1.3637 N   0  0  0  0  0  0  0  0  0  0  0  0
    2.8157   -5.2407    0.2688 H   0  0  0  0  0  0  0  0  0  0  0  0
    4.7734   -5.7802    1.6616 H   0  0  0  0  0  0  0  0  0  0  0  0
    6.8840   -2.4059   -0.0160 H   0  0  0  0  0  0  0  0  0  0  0  0
    4.8935   -1.8193   -1.3330 H   0  0  0  0  0  0  0  0  0  0  0  0
    8.4211   -5.7673    2.4283 H   0  0  0  0  0  0  0  0  0  0  0  0
    7.7628   -6.0072    0.8873 H   0  0  0  0  0  0  0  0  0  0  0  0
    1.9713   -3.9670   -1.7451 H   0  0  0  0  0  0  0  0  0  0  0  0
    2.7321   -2.4779   -2.2449 H   0  0  0  0  0  0  0  0  0  0  0  0
    1.0273   -2.9393    0.2698 H   0  0  0  0  0  0  0  0  0  0  0  0
    0.5655   -2.0504   -1.1631 H   0  0  0  0  0  0  0  0  0  0  0  0
    2.1966   -1.5150    2.2670 H   0  0  0  0  0  0  0  0  0  0  0  0
    3.9242    4.4549   -0.5551 H   0  0  0  0  0  0  0  0  0  0  0  0
    4.0875    4.1362   -2.1675 H   0  0  0  0  0  0  0  0  0  0  0  0
  2  1  2  0  0  0  0
  3  2  1  0  0  0  0
  4  3  2  0  0  0  0
  5  4  1  0  0  0  0
  6  5  2  0  0  0  0
  6  1  1  0  0  0  0
  7  4  1  0  0  0  0
  8  7  2  0  0  0  0
  9  7  1  0  0  0  0
 10  1  1  0  0  0  0
 11 10  1  0  0  0  0
 12 11  1  0  0  0  0
 13 12  2  0  0  0  0
 14 13  1  0  0  0  0
 14 15  1  0  0  0  0
 16 14  1  0  0  0  0
 17 16  2  0  0  0  0
 17 12  1  0  0  0  0
 18 17  1  0  0  0  0
 19 18  2  0  0  0  0
 20 18  1  0  0  0  0
 21 20  2  0  0  0  0
 22 21  1  0  0  0  0
 22 23  1  0  0  0  0
 22 16  1  0  0  0  0
 24 21  1  0  0  0  0
  2 25  1  0  0  0  0
  3 26  1  0  0  0  0
  5 27  1  0  0  0  0
  6 28  1  0  0  0  0
  9 29  1  0  0  0  0
  9 30  1  0  0  0  0
 10 31  1  0  0  0  0
 10 32  1  0  0  0  0
 11 33  1  0  0  0  0
 11 34  1  0  0  0  0
 13 35  1  0  0  0  0
 24 36  1  0  0  0  0
 24 37  1  0  0  0  0
M  END
>  <energy>
64.281180615532421

$$$$
