2L1V_PRF_A_37
  1228              3D

 22 23  0  0  0  0  0  0  0  0999 V2000
    1.8580    1.5423   -0.3986 N   0  0  0  0  0  0  0  0  0  0  0  0
    2.3354    2.3157   -0.8529 H   0  0  0  0  0  0  0  0  0  0  0  0
    2.5076    0.9154    0.6876 C   0  0  0  0  0  0  0  0  0  0  0  0
    2.0007   -0.1376    1.2892 N   0  0  0  0  0  0  0  0  0  0  0  0
    0.7062   -0.3772    0.9558 C   0  0  0  0  0  0  0  0  0  0  0  0
   -0.0074    0.1373   -0.1073 C   0  0  0  0  0  0  0  0  0  0  0  0
    0.5579    1.2559   -0.8282 C   0  0  0  0  0  0  0  0  0  0  0  0
   -0.0569    1.9067   -1.6658 O   0  0  0  0  0  0  0  0  0  0  0  0
   -1.2667   -0.5207   -0.1663 C   0  0  0  0  0  0  0  0  0  0  0  0
   -2.3647   -0.2875   -1.1462 C   0  0  0  0  0  0  0  0  0  0  0  0
   -3.0725    0.9384   -0.7992 N   0  0  0  0  0  0  0  0  0  0  0  0
   -1.2639   -1.4336    0.8753 C   0  0  0  0  0  0  0  0  0  0  0  0
   -0.0505   -1.3681    1.5176 N   0  0  0  0  0  0  0  0  0  0  0  0
    0.2351   -1.9633    2.2830 H   0  0  0  0  0  0  0  0  0  0  0  0
    3.7788    1.3792    0.9655 N   0  0  0  0  0  0  0  0  0  0  0  0
   -1.9576   -0.2071   -2.1608 H   0  0  0  0  0  0  0  0  0  0  0  0
   -3.0715   -1.1249   -1.1542 H   0  0  0  0  0  0  0  0  0  0  0  0
   -2.4040    1.6931   -0.6451 H   0  0  0  0  0  0  0  0  0  0  0  0
   -3.5643    0.8093    0.0840 H   0  0  0  0  0  0  0  0  0  0  0  0
   -2.0190   -2.1321    1.2093 H   0  0  0  0  0  0  0  0  0  0  0  0
    3.8167    2.3206    1.3531 H   0  0  0  0  0  0  0  0  0  0  0  0
    4.3216    0.7586    1.5641 H   0  0  0  0  0  0  0  0  0  0  0  0
  1  2  1  0  0  0  0
  3  1  1  0  0  0  0
  4  3  2  0  0  0  0
  5  4  1  0  0  0  0
  6  5  2  0  0  0  0
  7  6  1  0  0  0  0
  7  1  1  0  0  0  0
  8  7  2  0  0  0  0
  9  6  1  0  0  0  0
 10  9  1  0  0  0  0
 11 10  1  0  0  0  0
 12  9  2  0  0  0  0
 13 12  1  0  0  0  0
 13 14  1  0  0  0  0
 13  5  1  0  0  0  0
 15  3  1  0  0  0  0
 10 16  1  0  0  0  0
 10 17  1  0  0  0  0
 11 18  1  0  0  0  0
 11 19  1  0  0  0  0
 12 20  1  0  0  0  0
 15 21  1  0  0  0  0
 15 22  1  0  0  0  0
M  END
>  <energy>
27.731302020291203

$$$$
