ligands/ligand.pdb
  1228              3D

 88 91  0  0  0  0  0  0  0  0999 V2000
   -3.8662    5.9768    0.4728 O   0  0  0  0  0  0  0  0  0  0  0  0
   -2.8358    6.5190    1.2708 C   0  0  0  0  0  0  0  0  0  0  0  0
   -2.3483    5.4717    2.2402 C   0  0  0  0  0  0  0  0  0  0  0  0
   -3.1590    5.2239    2.9427 H   0  0  0  0  0  0  0  0  0  0  0  0
   -2.0248    4.0916    1.5377 O   0  0  0  0  0  0  0  0  0  0  0  0
   -0.6433    3.4918    2.0670 C   0  0  0  0  0  0  0  0  0  0  0  0
   -0.9367    2.6980    2.7618 H   0  0  0  0  0  0  0  0  0  0  0  0
   -0.1941    4.7792    2.6820 C   0  0  0  0  0  0  0  0  0  0  0  0
   -1.1757    4.4206    3.1890 H   0  0  0  0  0  0  0  0  0  0  0  0
   -0.9618    5.9761    3.1516 C   0  0  0  0  0  0  0  0  0  0  0  0
   -0.6837    6.9712    2.7722 H   0  0  0  0  0  0  0  0  0  0  0  0
   -1.4053    6.1184    4.4833 O   0  0  0  0  0  0  0  0  0  0  0  0
   -0.5461    6.1978    5.6053 C   0  0  0  0  0  0  0  0  0  0  0  0
   -0.7243    7.1915    6.0279 H   0  0  0  0  0  0  0  0  0  0  0  0
   -0.9638    5.2809    6.6450 O   0  0  0  0  0  0  0  0  0  0  0  0
   -1.0395    3.9122    6.1856 C   0  0  0  0  0  0  0  0  0  0  0  0
   -1.1202    3.3181    7.1048 H   0  0  0  0  0  0  0  0  0  0  0  0
    0.3555    3.4791    5.6232 C   0  0  0  0  0  0  0  0  0  0  0  0
    0.8776    3.0784    6.5026 H   0  0  0  0  0  0  0  0  0  0  0  0
    1.3307    4.5644    5.0664 C   0  0  0  0  0  0  0  0  0  0  0  0
    1.4740    4.4757    3.9999 H   0  0  0  0  0  0  0  0  0  0  0  0
    0.9691    5.9972    5.4898 C   0  0  0  0  0  0  0  0  0  0  0  0
    1.3719    6.1290    6.5045 H   0  0  0  0  0  0  0  0  0  0  0  0
    1.6089    7.0375    4.6845 N   0  0  0  0  0  0  0  0  0  0  0  0
    2.6510    4.2852    5.5739 O   0  0  0  0  0  0  0  0  0  0  0  0
    0.2752    2.3580    4.7528 O   0  0  0  0  0  0  0  0  0  0  0  0
   -2.4618    3.7294    5.5646 C   0  0  0  0  0  0  0  0  0  0  0  0
   -2.7661    2.5964    4.7065 N   0  0  0  0  0  0  0  0  0  0  0  0
   -0.0103    5.4750    1.3885 O   0  0  0  0  0  0  0  0  0  0  0  0
    0.1272    2.7124    1.1257 O   0  0  0  0  0  0  0  0  0  0  0  0
    0.3984    3.3624   -0.1048 C   0  0  0  0  0  0  0  0  0  0  0  0
    1.2199    4.0735    0.1409 H   0  0  0  0  0  0  0  0  0  0  0  0
    0.9116    2.6498   -1.4406 C   0  0  0  0  0  0  0  0  0  0  0  0
    0.2034    2.0949   -2.0398 H   0  0  0  0  0  0  0  0  0  0  0  0
    1.8545    1.6965   -1.1087 O   0  0  0  0  0  0  0  0  0  0  0  0
    1.3560    0.3760   -0.9153 C   0  0  0  0  0  0  0  0  0  0  0  0
    0.2933    0.2472   -1.1389 H   0  0  0  0  0  0  0  0  0  0  0  0
    2.1058   -0.4892   -1.8424 O   0  0  0  0  0  0  0  0  0  0  0  0
    3.5353   -0.2308   -1.7477 C   0  0  0  0  0  0  0  0  0  0  0  0
    3.6559    0.8473   -1.6685 H   0  0  0  0  0  0  0  0  0  0  0  0
    4.1964   -0.7719   -0.3765 C   0  0  0  0  0  0  0  0  0  0  0  0
    4.3440   -1.8534   -0.3926 H   0  0  0  0  0  0  0  0  0  0  0  0
    3.3188   -0.3650    0.9852 C   0  0  0  0  0  0  0  0  0  0  0  0
    3.6792    0.5964    1.4150 H   0  0  0  0  0  0  0  0  0  0  0  0
    1.8469   -0.1669    0.4823 C   0  0  0  0  0  0  0  0  0  0  0  0
    2.6112    0.3871   -0.0304 H   0  0  0  0  0  0  0  0  0  0  0  0
    1.3776   -1.5588    0.4022 N   0  0  0  0  0  0  0  0  0  0  0  0
    3.4918   -1.2848    2.0465 O   0  0  0  0  0  0  0  0  0  0  0  0
    5.4752   -0.1558   -0.2160 O   0  0  0  0  0  0  0  0  0  0  0  0
    4.0667   -0.4843   -3.1484 C   0  0  0  0  0  0  0  0  0  0  0  0
    5.1998    0.3976   -3.3878 N   0  0  0  0  0  0  0  0  0  0  0  0
    1.3173    3.8121   -2.3751 C   0  0  0  0  0  0  0  0  0  0  0  0
    1.7514    4.6494   -1.8010 H   0  0  0  0  0  0  0  0  0  0  0  0
   -0.0714    4.3432   -3.0226 C   0  0  0  0  0  0  0  0  0  0  0  0
   -1.4428    4.6344   -1.9322 C   0  0  0  0  0  0  0  0  0  0  0  0
   -1.8592    4.4508   -2.9245 H   0  0  0  0  0  0  0  0  0  0  0  0
   -0.9213    3.9217   -0.6828 C   0  0  0  0  0  0  0  0  0  0  0  0
   -0.0985    4.5427   -1.0617 H   0  0  0  0  0  0  0  0  0  0  0  0
   -1.4648    2.5694   -0.8125 O   0  0  0  0  0  0  0  0  0  0  0  0
   -2.8921    4.2393   -1.6743 N   0  0  0  0  0  0  0  0  0  0  0  0
    2.3135    3.5789   -3.4134 N   0  0  0  0  0  0  0  0  0  0  0  0
   -3.4355    5.5999   -0.3139 H   0  0  0  0  0  0  0  0  0  0  0  0
   -2.0410    6.9054    0.6246 H   0  0  0  0  0  0  0  0  0  0  0  0
   -3.2657    7.3622    1.8170 H   0  0  0  0  0  0  0  0  0  0  0  0
    1.0835    7.2174    3.8298 H   0  0  0  0  0  0  0  0  0  0  0  0
    1.5840    7.9177    5.2059 H   0  0  0  0  0  0  0  0  0  0  0  0
    3.2563    4.3289    4.8135 H   0  0  0  0  0  0  0  0  0  0  0  0
    1.1358    2.2615    4.3046 H   0  0  0  0  0  0  0  0  0  0  0  0
   -2.8290    4.6243    5.0735 H   0  0  0  0  0  0  0  0  0  0  0  0
   -3.1433    3.6500    6.4246 H   0  0  0  0  0  0  0  0  0  0  0  0
   -3.7778    2.4366    4.7599 H   0  0  0  0  0  0  0  0  0  0  0  0
   -2.6496    2.8854    3.7354 H   0  0  0  0  0  0  0  0  0  0  0  0
    0.9174    5.7776    1.4020 H   0  0  0  0  0  0  0  0  0  0  0  0
    1.0863   -1.8682    1.3347 H   0  0  0  0  0  0  0  0  0  0  0  0
    2.1256   -2.1828    0.1097 H   0  0  0  0  0  0  0  0  0  0  0  0
    2.9580   -2.0767    1.8700 H   0  0  0  0  0  0  0  0  0  0  0  0
    5.7188    0.2744   -1.0548 H   0  0  0  0  0  0  0  0  0  0  0  0
    3.2821   -0.1683   -3.8539 H   0  0  0  0  0  0  0  0  0  0  0  0
    4.2887   -1.5300   -3.3586 H   0  0  0  0  0  0  0  0  0  0  0  0
    5.9877   -0.1304   -3.7450 H   0  0  0  0  0  0  0  0  0  0  0  0
    4.9596    1.0965   -4.0914 H   0  0  0  0  0  0  0  0  0  0  0  0
    0.1153    5.2972   -3.5481 H   0  0  0  0  0  0  0  0  0  0  0  0
   -0.3664    3.5628   -3.7530 H   0  0  0  0  0  0  0  0  0  0  0  0
   -1.6333    2.3528   -1.7490 H   0  0  0  0  0  0  0  0  0  0  0  0
   -2.9964    3.7879   -0.7524 H   0  0  0  0  0  0  0  0  0  0  0  0
   -3.1855    3.4734   -2.2907 H   0  0  0  0  0  0  0  0  0  0  0  0
    2.7440    4.4681   -3.6695 H   0  0  0  0  0  0  0  0  0  0  0  0
    1.8823    3.2402   -4.2634 H   0  0  0  0  0  0  0  0  0  0  0  0
  2  1  1  0  0  0  0
  3  2  1  0  0  0  0
  3  4  1  0  0  0  0
  5  3  1  0  0  0  0
  6  5  1  0  0  0  0
  6  7  1  0  0  0  0
  8  6  1  0  0  0  0
  8  9  1  0  0  0  0
 10  8  1  0  0  0  0
 10 11  1  0  0  0  0
 10  3  1  0  0  0  0
 12 10  1  0  0  0  0
 13 12  1  0  0  0  0
 13 14  1  0  0  0  0
 15 13  1  0  0  0  0
 16 15  1  0  0  0  0
 16 17  1  0  0  0  0
 18 16  1  0  0  0  0
 18 19  1  0  0  0  0
 20 18  1  0  0  0  0
 20 21  1  0  0  0  0
 22 20  1  0  0  0  0
 22 23  1  0  0  0  0
 22 13  1  0  0  0  0
 24 22  1  0  0  0  0
 25 20  1  0  0  0  0
 26 18  1  0  0  0  0
 27 16  1  0  0  0  0
 28 27  1  0  0  0  0
 29  8  1  0  0  0  0
 30  6  1  0  0  0  0
 31 30  1  0  0  0  0
 31 32  1  0  0  0  0
 33 31  1  0  0  0  0
 33 34  1  0  0  0  0
 35 33  1  0  0  0  0
 36 35  1  0  0  0  0
 36 37  1  0  0  0  0
 38 36  1  0  0  0  0
 39 38  1  0  0  0  0
 39 40  1  0  0  0  0
 41 39  1  0  0  0  0
 41 42  1  0  0  0  0
 43 41  1  0  0  0  0
 43 44  1  0  0  0  0
 45 43  1  0  0  0  0
 45 46  1  0  0  0  0
 45 36  1  0  0  0  0
 47 45  1  0  0  0  0
 48 43  1  0  0  0  0
 49 41  1  0  0  0  0
 50 39  1  0  0  0  0
 51 50  1  0  0  0  0
 52 33  1  0  0  0  0
 52 53  1  0  0  0  0
 54 52  1  0  0  0  0
 55 54  1  0  0  0  0
 55 56  1  0  0  0  0
 57 55  1  0  0  0  0
 57 58  1  0  0  0  0
 57 31  1  0  0  0  0
 59 57  1  0  0  0  0
 60 55  1  0  0  0  0
 61 52  1  0  0  0  0
  1 62  1  0  0  0  0
  2 63  1  0  0  0  0
  2 64  1  0  0  0  0
 24 65  1  0  0  0  0
 24 66  1  0  0  0  0
 25 67  1  0  0  0  0
 26 68  1  0  0  0  0
 27 69  1  0  0  0  0
 27 70  1  0  0  0  0
 28 71  1  0  0  0  0
 28 72  1  0  0  0  0
 29 73  1  0  0  0  0
 47 74  1  0  0  0  0
 47 75  1  0  0  0  0
 48 76  1  0  0  0  0
 49 77  1  0  0  0  0
 50 78  1  0  0  0  0
 50 79  1  0  0  0  0
 51 80  1  0  0  0  0
 51 81  1  0  0  0  0
 54 82  1  0  0  0  0
 54 83  1  0  0  0  0
 59 84  1  0  0  0  0
 60 85  1  0  0  0  0
 60 86  1  0  0  0  0
 61 87  1  0  0  0  0
 61 88  1  0  0  0  0
M  END
>  <energy>
741.32159776115031

$$$$
