2GUN_SPM_B_521
  1228              3D

 40 39  0  0  0  0  0  0  0  0999 V2000
   -2.2429    2.4542    0.5780 N   0  0  0  0  0  0  0  0  0  0  0  0
   -3.4920    1.7006    0.5628 C   0  0  0  0  0  0  0  0  0  0  0  0
   -4.0231    1.6252   -0.8676 C   0  0  0  0  0  0  0  0  0  0  0  0
   -5.4042    0.9674   -0.9415 C   0  0  0  0  0  0  0  0  0  0  0  0
   -5.3182   -0.4934   -0.9162 N   0  0  0  0  0  0  0  0  0  0  0  0
   -5.1901   -1.0713   -2.2570 C   0  0  0  0  0  0  0  0  0  0  0  0
   -5.6567   -2.5326   -2.2824 C   0  0  0  0  0  0  0  0  0  0  0  0
   -4.5905   -3.5039   -1.7662 C   0  0  0  0  0  0  0  0  0  0  0  0
   -5.1726   -4.8879   -1.4719 C   0  0  0  0  0  0  0  0  0  0  0  0
   -5.8257   -4.8988   -0.1621 N   0  0  0  0  0  0  0  0  0  0  0  0
   -6.5499   -6.1523    0.0417 C   0  0  0  0  0  0  0  0  0  0  0  0
   -7.1949   -6.1711    1.4288 C   0  0  0  0  0  0  0  0  0  0  0  0
   -7.9724   -7.4725    1.6422 C   0  0  0  0  0  0  0  0  0  0  0  0
   -8.5307   -7.5458    2.9887 N   0  0  0  0  0  0  0  0  0  0  0  0
   -1.4899    1.8658    0.9305 H   0  0  0  0  0  0  0  0  0  0  0  0
   -2.3202    3.2332    1.2311 H   0  0  0  0  0  0  0  0  0  0  0  0
   -4.2194    2.1938    1.2163 H   0  0  0  0  0  0  0  0  0  0  0  0
   -3.3164    0.6946    0.9584 H   0  0  0  0  0  0  0  0  0  0  0  0
   -4.1105    2.6395   -1.2781 H   0  0  0  0  0  0  0  0  0  0  0  0
   -3.3086    1.0918   -1.5070 H   0  0  0  0  0  0  0  0  0  0  0  0
   -6.0174    1.2924   -0.0930 H   0  0  0  0  0  0  0  0  0  0  0  0
   -5.9304    1.3230   -1.8354 H   0  0  0  0  0  0  0  0  0  0  0  0
   -6.1485   -0.8665   -0.4579 H   0  0  0  0  0  0  0  0  0  0  0  0
   -5.7876   -0.5143   -2.9884 H   0  0  0  0  0  0  0  0  0  0  0  0
   -4.1451   -1.0093   -2.5831 H   0  0  0  0  0  0  0  0  0  0  0  0
   -6.5903   -2.6403   -1.7169 H   0  0  0  0  0  0  0  0  0  0  0  0
   -5.8996   -2.7974   -3.3200 H   0  0  0  0  0  0  0  0  0  0  0  0
   -3.8131   -3.6086   -2.5332 H   0  0  0  0  0  0  0  0  0  0  0  0
   -4.0928   -3.1001   -0.8767 H   0  0  0  0  0  0  0  0  0  0  0  0
   -5.8784   -5.1679   -2.2628 H   0  0  0  0  0  0  0  0  0  0  0  0
   -4.3607   -5.6236   -1.4854 H   0  0  0  0  0  0  0  0  0  0  0  0
   -5.1167   -4.8002    0.5645 H   0  0  0  0  0  0  0  0  0  0  0  0
   -7.3318   -6.2588   -0.7186 H   0  0  0  0  0  0  0  0  0  0  0  0
   -5.8662   -7.0040   -0.0528 H   0  0  0  0  0  0  0  0  0  0  0  0
   -6.4210   -6.0749    2.2005 H   0  0  0  0  0  0  0  0  0  0  0  0
   -7.8759   -5.3178    1.5371 H   0  0  0  0  0  0  0  0  0  0  0  0
   -8.7899   -7.5459    0.9168 H   0  0  0  0  0  0  0  0  0  0  0  0
   -7.3168   -8.3359    1.4873 H   0  0  0  0  0  0  0  0  0  0  0  0
   -7.7910   -7.4094    3.6753 H   0  0  0  0  0  0  0  0  0  0  0  0
   -9.1948   -6.7838    3.1251 H   0  0  0  0  0  0  0  0  0  0  0  0
  2  1  1  0  0  0  0
  3  2  1  0  0  0  0
  4  3  1  0  0  0  0
  5  4  1  0  0  0  0
  6  5  1  0  0  0  0
  7  6  1  0  0  0  0
  8  7  1  0  0  0  0
  9  8  1  0  0  0  0
 10  9  1  0  0  0  0
 11 10  1  0  0  0  0
 12 11  1  0  0  0  0
 13 12  1  0  0  0  0
 14 13  1  0  0  0  0
  1 15  1  0  0  0  0
  1 16  1  0  0  0  0
  2 17  1  0  0  0  0
  2 18  1  0  0  0  0
  3 19  1  0  0  0  0
  3 20  1  0  0  0  0
  4 21  1  0  0  0  0
  4 22  1  0  0  0  0
  5 23  1  0  0  0  0
  6 24  1  0  0  0  0
  6 25  1  0  0  0  0
  7 26  1  0  0  0  0
  7 27  1  0  0  0  0
  8 28  1  0  0  0  0
  8 29  1  0  0  0  0
  9 30  1  0  0  0  0
  9 31  1  0  0  0  0
 10 32  1  0  0  0  0
 11 33  1  0  0  0  0
 11 34  1  0  0  0  0
 12 35  1  0  0  0  0
 12 36  1  0  0  0  0
 13 37  1  0  0  0  0
 13 38  1  0  0  0  0
 14 39  1  0  0  0  0
 14 40  1  0  0  0  0
M  END
>  <energy>
-3.6393883744768978

$$$$
