3LA5_5AZ_A_84
  1228              3D

 12 12  0  0  0  0  0  0  0  0999 V2000
   -1.3338   -0.9837    0.3744 C   0  0  0  0  0  0  0  0  0  0  0  0
   -1.8999   -2.0332    0.6754 O   0  0  0  0  0  0  0  0  0  0  0  0
    0.0218   -0.9665    0.0782 N   0  0  0  0  0  0  0  0  0  0  0  0
    0.5213   -1.8481    0.1372 H   0  0  0  0  0  0  0  0  0  0  0  0
    0.6937    0.2103   -0.2146 C   0  0  0  0  0  0  0  0  0  0  0  0
    0.0151    1.3154   -0.3534 N   0  0  0  0  0  0  0  0  0  0  0  0
   -1.3195    1.2822   -0.0213 C   0  0  0  0  0  0  0  0  0  0  0  0
   -1.9951    0.2234    0.3009 N   0  0  0  0  0  0  0  0  0  0  0  0
    2.0473    0.1301   -0.4923 N   0  0  0  0  0  0  0  0  0  0  0  0
   -1.8724    2.2347   -0.0931 H   0  0  0  0  0  0  0  0  0  0  0  0
    2.6303   -0.3873    0.1650 H   0  0  0  0  0  0  0  0  0  0  0  0
    2.4812    1.0374   -0.6587 H   0  0  0  0  0  0  0  0  0  0  0  0
  2  1  2  0  0  0  0
  3  1  1  0  0  0  0
  3  4  1  0  0  0  0
  5  3  1  0  0  0  0
  6  5  2  0  0  0  0
  7  6  1  0  0  0  0
  8  7  2  0  0  0  0
  8  1  1  0  0  0  0
  9  5  1  0  0  0  0
  7 10  1  0  0  0  0
  9 11  1  0  0  0  0
  9 12  1  0  0  0  0
M  END
>  <energy>
20.151581126798707

$$$$
