ligands/ligand.pdb
  1228              3D

 88 91  0  0  0  0  0  0  0  0999 V2000
   -2.7766    0.8099   -3.6843 C   0  0  0  0  0  0  0  0  0  0  0  0
   -2.2020    1.4217   -2.9833 H   0  0  0  0  0  0  0  0  0  0  0  0
   -2.8485   -0.5138   -3.1242 O   0  0  0  0  0  0  0  0  0  0  0  0
   -1.6214   -1.1920   -3.4395 C   0  0  0  0  0  0  0  0  0  0  0  0
   -0.9275   -1.0180   -2.6118 H   0  0  0  0  0  0  0  0  0  0  0  0
   -1.0945   -0.5472   -4.7244 C   0  0  0  0  0  0  0  0  0  0  0  0
   -1.0532   -1.2560   -5.5609 H   0  0  0  0  0  0  0  0  0  0  0  0
    0.2314   -0.0768   -4.5223 O   0  0  0  0  0  0  0  0  0  0  0  0
   -2.0816    0.5781   -5.0218 C   0  0  0  0  0  0  0  0  0  0  0  0
   -2.8345    0.1694   -5.7106 H   0  0  0  0  0  0  0  0  0  0  0  0
   -1.4820    1.6578   -5.7173 O   0  0  0  0  0  0  0  0  0  0  0  0
   -1.1266    2.8462   -5.0055 C   0  0  0  0  0  0  0  0  0  0  0  0
   -2.0609    3.3573   -4.7470 H   0  0  0  0  0  0  0  0  0  0  0  0
   -0.3589    2.6204   -3.8207 O   0  0  0  0  0  0  0  0  0  0  0  0
   -0.1898    3.8308   -3.0713 C   0  0  0  0  0  0  0  0  0  0  0  0
   -1.1697    4.3102   -2.9434 H   0  0  0  0  0  0  0  0  0  0  0  0
    0.7357    4.7727   -3.8632 C   0  0  0  0  0  0  0  0  0  0  0  0
    0.8564    5.7236   -3.3310 H   0  0  0  0  0  0  0  0  0  0  0  0
    0.2065    5.0177   -5.2913 C   0  0  0  0  0  0  0  0  0  0  0  0
    1.0051    5.4638   -5.8959 H   0  0  0  0  0  0  0  0  0  0  0  0
   -0.3146    3.7365   -5.9708 C   0  0  0  0  0  0  0  0  0  0  0  0
   -0.9740    4.0124   -6.8039 H   0  0  0  0  0  0  0  0  0  0  0  0
    0.8095    3.0039   -6.5709 N   0  0  0  0  0  0  0  0  0  0  0  0
   -0.8540    5.9788   -5.2508 O   0  0  0  0  0  0  0  0  0  0  0  0
    2.0424    4.1941   -3.9737 O   0  0  0  0  0  0  0  0  0  0  0  0
    0.3739    3.4809   -1.6848 C   0  0  0  0  0  0  0  0  0  0  0  0
   -0.6965    3.2949   -0.7076 N   0  0  0  0  0  0  0  0  0  0  0  0
   -1.8127   -2.5838   -3.6808 O   0  0  0  0  0  0  0  0  0  0  0  0
   -1.8641   -3.4577   -2.5463 C   0  0  0  0  0  0  0  0  0  0  0  0
   -2.1200   -4.4350   -2.9798 H   0  0  0  0  0  0  0  0  0  0  0  0
   -0.4968   -3.5885   -1.8385 C   0  0  0  0  0  0  0  0  0  0  0  0
   -0.0975   -2.5940   -1.6187 H   0  0  0  0  0  0  0  0  0  0  0  0
   -0.5809   -4.3910   -0.5175 C   0  0  0  0  0  0  0  0  0  0  0  0
    0.1962   -5.1643   -0.5129 H   0  0  0  0  0  0  0  0  0  0  0  0
   -1.9280   -5.1053   -0.3109 C   0  0  0  0  0  0  0  0  0  0  0  0
   -3.1630   -4.2111   -0.5071 C   0  0  0  0  0  0  0  0  0  0  0  0
   -3.9772   -4.8632   -0.8537 H   0  0  0  0  0  0  0  0  0  0  0  0
   -3.6034   -3.6677    0.7856 N   0  0  0  0  0  0  0  0  0  0  0  0
   -2.9601   -3.0873   -1.5383 C   0  0  0  0  0  0  0  0  0  0  0  0
   -2.6949   -2.1492   -1.0367 H   0  0  0  0  0  0  0  0  0  0  0  0
   -4.2078   -2.8744   -2.2005 O   0  0  0  0  0  0  0  0  0  0  0  0
   -0.2869   -3.4976    0.6101 N   0  0  0  0  0  0  0  0  0  0  0  0
    0.4144   -4.2655   -2.7220 O   0  0  0  0  0  0  0  0  0  0  0  0
    1.4069   -3.4047   -3.3006 C   0  0  0  0  0  0  0  0  0  0  0  0
    0.8961   -2.5735   -3.7929 H   0  0  0  0  0  0  0  0  0  0  0  0
    2.3118   -2.8351   -2.3441 O   0  0  0  0  0  0  0  0  0  0  0  0
    3.0573   -3.8156   -1.6086 C   0  0  0  0  0  0  0  0  0  0  0  0
    2.3522   -4.4658   -1.0759 H   0  0  0  0  0  0  0  0  0  0  0  0
    3.9021   -4.6676   -2.5678 C   0  0  0  0  0  0  0  0  0  0  0  0
    4.6900   -4.0609   -3.0319 H   0  0  0  0  0  0  0  0  0  0  0  0
    3.0353   -5.2735   -3.6776 C   0  0  0  0  0  0  0  0  0  0  0  0
    2.3872   -6.0609   -3.2739 H   0  0  0  0  0  0  0  0  0  0  0  0
    2.2212   -4.1683   -4.3598 C   0  0  0  0  0  0  0  0  0  0  0  0
    2.9200   -3.4694   -4.8379 H   0  0  0  0  0  0  0  0  0  0  0  0
    1.3457   -4.7162   -5.3908 N   0  0  0  0  0  0  0  0  0  0  0  0
    3.9062   -5.8895   -4.6267 O   0  0  0  0  0  0  0  0  0  0  0  0
    4.5509   -5.7092   -1.8386 O   0  0  0  0  0  0  0  0  0  0  0  0
    3.8706   -3.0690   -0.5393 C   0  0  0  0  0  0  0  0  0  0  0  0
    4.9371   -2.2313   -1.0735 N   0  0  0  0  0  0  0  0  0  0  0  0
   -4.1961    1.3360   -3.8118 C   0  0  0  0  0  0  0  0  0  0  0  0
   -4.7348    1.5237   -2.5090 O   0  0  0  0  0  0  0  0  0  0  0  0
    0.2114    0.5865   -3.8116 H   0  0  0  0  0  0  0  0  0  0  0  0
    0.4600    2.1500   -7.0051 H   0  0  0  0  0  0  0  0  0  0  0  0
    1.4508    2.7006   -5.8392 H   0  0  0  0  0  0  0  0  0  0  0  0
   -1.4089    5.7993   -4.4746 H   0  0  0  0  0  0  0  0  0  0  0  0
    1.9651    3.2311   -3.8642 H   0  0  0  0  0  0  0  0  0  0  0  0
    1.0348    4.2755   -1.3208 H   0  0  0  0  0  0  0  0  0  0  0  0
    0.9701    2.5626   -1.7290 H   0  0  0  0  0  0  0  0  0  0  0  0
   -1.1509    4.1904   -0.5286 H   0  0  0  0  0  0  0  0  0  0  0  0
   -1.4150    2.6838   -1.0939 H   0  0  0  0  0  0  0  0  0  0  0  0
   -1.9888   -5.9220   -1.0438 H   0  0  0  0  0  0  0  0  0  0  0  0
   -1.9454   -5.5901    0.6734 H   0  0  0  0  0  0  0  0  0  0  0  0
   -4.1630   -2.8281    0.6393 H   0  0  0  0  0  0  0  0  0  0  0  0
   -4.2229   -4.3380    1.2397 H   0  0  0  0  0  0  0  0  0  0  0  0
   -4.0238   -2.5163   -3.0863 H   0  0  0  0  0  0  0  0  0  0  0  0
   -1.1477   -3.0958    0.9772 H   0  0  0  0  0  0  0  0  0  0  0  0
    0.1231   -4.0366    1.3717 H   0  0  0  0  0  0  0  0  0  0  0  0
    0.7998   -3.9592   -5.8080 H   0  0  0  0  0  0  0  0  0  0  0  0
    1.9134   -5.0897   -6.1485 H   0  0  0  0  0  0  0  0  0  0  0  0
    3.3654   -6.5070   -5.1511 H   0  0  0  0  0  0  0  0  0  0  0  0
    3.8590   -6.2633   -1.4331 H   0  0  0  0  0  0  0  0  0  0  0  0
    3.1952   -2.4319    0.0435 H   0  0  0  0  0  0  0  0  0  0  0  0
    4.2975   -3.7892    0.1671 H   0  0  0  0  0  0  0  0  0  0  0  0
    5.7392   -2.8126   -1.3122 H   0  0  0  0  0  0  0  0  0  0  0  0
    4.6327   -1.7895   -1.9394 H   0  0  0  0  0  0  0  0  0  0  0  0
   -4.8353    0.6347   -4.3584 H   0  0  0  0  0  0  0  0  0  0  0  0
   -4.2155    2.2993   -4.3268 H   0  0  0  0  0  0  0  0  0  0  0  0
   -5.7012    1.4569   -2.5819 H   0  0  0  0  0  0  0  0  0  0  0  0
  1  2  1  0  0  0  0
  3  1  1  0  0  0  0
  4  3  1  0  0  0  0
  4  5  1  0  0  0  0
  6  4  1  0  0  0  0
  6  7  1  0  0  0  0
  8  6  1  0  0  0  0
  9  6  1  0  0  0  0
  9 10  1  0  0  0  0
  9  1  1  0  0  0  0
 11  9  1  0  0  0  0
 12 11  1  0  0  0  0
 12 13  1  0  0  0  0
 14 12  1  0  0  0  0
 15 14  1  0  0  0  0
 15 16  1  0  0  0  0
 17 15  1  0  0  0  0
 17 18  1  0  0  0  0
 19 17  1  0  0  0  0
 19 20  1  0  0  0  0
 21 19  1  0  0  0  0
 21 22  1  0  0  0  0
 21 12  1  0  0  0  0
 23 21  1  0  0  0  0
 24 19  1  0  0  0  0
 25 17  1  0  0  0  0
 26 15  1  0  0  0  0
 27 26  1  0  0  0  0
 28  4  1  0  0  0  0
 29 28  1  0  0  0  0
 29 30  1  0  0  0  0
 31 29  1  0  0  0  0
 31 32  1  0  0  0  0
 33 31  1  0  0  0  0
 33 34  1  0  0  0  0
 35 33  1  0  0  0  0
 36 35  1  0  0  0  0
 36 37  1  0  0  0  0
 38 36  1  0  0  0  0
 39 36  1  0  0  0  0
 39 40  1  0  0  0  0
 39 29  1  0  0  0  0
 41 39  1  0  0  0  0
 42 33  1  0  0  0  0
 43 31  1  0  0  0  0
 44 43  1  0  0  0  0
 44 45  1  0  0  0  0
 46 44  1  0  0  0  0
 47 46  1  0  0  0  0
 47 48  1  0  0  0  0
 49 47  1  0  0  0  0
 49 50  1  0  0  0  0
 51 49  1  0  0  0  0
 51 52  1  0  0  0  0
 53 51  1  0  0  0  0
 53 54  1  0  0  0  0
 53 44  1  0  0  0  0
 55 53  1  0  0  0  0
 56 51  1  0  0  0  0
 57 49  1  0  0  0  0
 58 47  1  0  0  0  0
 59 58  1  0  0  0  0
 60  1  1  0  0  0  0
 61 60  1  0  0  0  0
  8 62  1  0  0  0  0
 23 63  1  0  0  0  0
 23 64  1  0  0  0  0
 24 65  1  0  0  0  0
 25 66  1  0  0  0  0
 26 67  1  0  0  0  0
 26 68  1  0  0  0  0
 27 69  1  0  0  0  0
 27 70  1  0  0  0  0
 35 71  1  0  0  0  0
 35 72  1  0  0  0  0
 38 73  1  0  0  0  0
 38 74  1  0  0  0  0
 41 75  1  0  0  0  0
 42 76  1  0  0  0  0
 42 77  1  0  0  0  0
 55 78  1  0  0  0  0
 55 79  1  0  0  0  0
 56 80  1  0  0  0  0
 57 81  1  0  0  0  0
 58 82  1  0  0  0  0
 58 83  1  0  0  0  0
 59 84  1  0  0  0  0
 59 85  1  0  0  0  0
 60 86  1  0  0  0  0
 60 87  1  0  0  0  0
 61 88  1  0  0  0  0
M  END
>  <energy>
126.83741548355921

$$$$
