3SKR_GNG_A_120
  1228              3D

 32 34  0  0  0  0  0  0  0  0999 V2000
    3.5051   -3.7523   -0.6209 O   0  0  0  0  0  0  0  0  0  0  0  0
    4.1200   -2.4786   -0.4903 C   0  0  0  0  0  0  0  0  0  0  0  0
    3.2554   -1.3141   -1.0004 C   0  0  0  0  0  0  0  0  0  0  0  0
    3.7521   -0.8630   -1.8691 H   0  0  0  0  0  0  0  0  0  0  0  0
    1.9593   -1.7489   -1.4468 O   0  0  0  0  0  0  0  0  0  0  0  0
    0.9768   -0.7221   -1.1660 C   0  0  0  0  0  0  0  0  0  0  0  0
    0.5808   -0.3585   -2.1210 H   0  0  0  0  0  0  0  0  0  0  0  0
   -0.1409   -1.3177   -0.4421 N   0  0  0  0  0  0  0  0  0  0  0  0
   -0.2517   -2.6490   -0.0905 C   0  0  0  0  0  0  0  0  0  0  0  0
   -1.3915   -2.9295    0.5108 N   0  0  0  0  0  0  0  0  0  0  0  0
   -2.0570   -1.7426    0.5323 C   0  0  0  0  0  0  0  0  0  0  0  0
   -1.3269   -0.7490   -0.0703 C   0  0  0  0  0  0  0  0  0  0  0  0
   -1.7841    0.5158   -0.1524 N   0  0  0  0  0  0  0  0  0  0  0  0
   -1.2279    1.2949   -0.4896 H   0  0  0  0  0  0  0  0  0  0  0  0
   -3.0349    0.7569    0.4644 C   0  0  0  0  0  0  0  0  0  0  0  0
   -3.8903   -0.2285    0.6926 N   0  0  0  0  0  0  0  0  0  0  0  0
   -3.3752   -1.4762    1.0750 C   0  0  0  0  0  0  0  0  0  0  0  0
   -4.0073   -2.3220    1.6954 O   0  0  0  0  0  0  0  0  0  0  0  0
   -3.4686    2.0629    0.3540 N   0  0  0  0  0  0  0  0  0  0  0  0
    1.7002    0.3821   -0.4062 C   0  0  0  0  0  0  0  0  0  0  0  0
    2.9673   -0.2834    0.0837 C   0  0  0  0  0  0  0  0  0  0  0  0
    2.8011   -0.7565    1.0569 H   0  0  0  0  0  0  0  0  0  0  0  0
    4.0121    0.6673    0.2362 O   0  0  0  0  0  0  0  0  0  0  0  0
    2.7570   -3.6736   -1.2341 H   0  0  0  0  0  0  0  0  0  0  0  0
    5.0697   -2.5114   -1.0370 H   0  0  0  0  0  0  0  0  0  0  0  0
    4.3742   -2.3528    0.5670 H   0  0  0  0  0  0  0  0  0  0  0  0
    0.5250   -3.3718   -0.2970 H   0  0  0  0  0  0  0  0  0  0  0  0
   -3.1653    2.6865    1.0990 H   0  0  0  0  0  0  0  0  0  0  0  0
   -3.3145    2.5008   -0.5515 H   0  0  0  0  0  0  0  0  0  0  0  0
    1.9475    1.2052   -1.0894 H   0  0  0  0  0  0  0  0  0  0  0  0
    1.1160    0.8120    0.4147 H   0  0  0  0  0  0  0  0  0  0  0  0
    4.7370    0.4437   -0.3711 H   0  0  0  0  0  0  0  0  0  0  0  0
  2  1  1  0  0  0  0
  3  2  1  0  0  0  0
  3  4  1  0  0  0  0
  5  3  1  0  0  0  0
  6  5  1  0  0  0  0
  6  7  1  0  0  0  0
  8  6  1  0  0  0  0
  9  8  1  0  0  0  0
 10  9  2  0  0  0  0
 11 10  1  0  0  0  0
 12 11  2  0  0  0  0
 12  8  1  0  0  0  0
 13 12  1  0  0  0  0
 13 14  1  0  0  0  0
 15 13  1  0  0  0  0
 16 15  2  0  0  0  0
 17 16  1  0  0  0  0
 17 11  1  0  0  0  0
 18 17  2  0  0  0  0
 19 15  1  0  0  0  0
 20  6  1  0  0  0  0
 21 20  1  0  0  0  0
 21 22  1  0  0  0  0
 21  3  1  0  0  0  0
 23 21  1  0  0  0  0
  1 24  1  0  0  0  0
  2 25  1  0  0  0  0
  2 26  1  0  0  0  0
  9 27  1  0  0  0  0
 19 28  1  0  0  0  0
 19 29  1  0  0  0  0
 20 30  1  0  0  0  0
 20 31  1  0  0  0  0
 23 32  1  0  0  0  0
M  END
>  <energy>
78.894285919385254

$$$$
