1G4Q_MPD_A_25
  1228              3D

 22 21  0  0  0  0  0  0  0  0999 V2000
   -1.5297   -1.3803   -0.3235 C   0  0  0  0  0  0  0  0  0  0  0  0
   -1.1478    0.0994   -0.3924 C   0  0  0  0  0  0  0  0  0  0  0  0
   -2.0501    0.7390   -1.3108 O   0  0  0  0  0  0  0  0  0  0  0  0
   -1.3121    0.7796    0.9707 C   0  0  0  0  0  0  0  0  0  0  0  0
    0.2620    0.3167   -0.9848 C   0  0  0  0  0  0  0  0  0  0  0  0
    1.4225   -0.2929   -0.1840 C   0  0  0  0  0  0  0  0  0  0  0  0
    1.2409   -0.2206    0.8916 H   0  0  0  0  0  0  0  0  0  0  0  0
    1.5502   -1.6763   -0.5016 O   0  0  0  0  0  0  0  0  0  0  0  0
    2.7440    0.3979   -0.4956 C   0  0  0  0  0  0  0  0  0  0  0  0
   -2.5958   -1.5044   -0.1056 H   0  0  0  0  0  0  0  0  0  0  0  0
   -1.3242   -1.8847   -1.2734 H   0  0  0  0  0  0  0  0  0  0  0  0
   -0.9738   -1.9006    0.4632 H   0  0  0  0  0  0  0  0  0  0  0  0
   -2.9561    0.6320   -0.9751 H   0  0  0  0  0  0  0  0  0  0  0  0
   -2.3697    0.8871    1.2369 H   0  0  0  0  0  0  0  0  0  0  0  0
   -0.8704    1.7817    0.9692 H   0  0  0  0  0  0  0  0  0  0  0  0
   -0.8308    0.2022    1.7679 H   0  0  0  0  0  0  0  0  0  0  0  0
    0.2806   -0.0785   -2.0104 H   0  0  0  0  0  0  0  0  0  0  0  0
    0.4260    1.3985   -1.0863 H   0  0  0  0  0  0  0  0  0  0  0  0
    1.7917   -1.7499   -1.4409 H   0  0  0  0  0  0  0  0  0  0  0  0
    2.7790    1.3885   -0.0319 H   0  0  0  0  0  0  0  0  0  0  0  0
    2.8887    0.5211   -1.5726 H   0  0  0  0  0  0  0  0  0  0  0  0
    3.5860   -0.1840   -0.1090 H   0  0  0  0  0  0  0  0  0  0  0  0
  2  1  1  0  0  0  0
  3  2  1  0  0  0  0
  4  2  1  0  0  0  0
  5  2  1  0  0  0  0
  6  5  1  0  0  0  0
  6  7  1  0  0  0  0
  8  6  1  0  0  0  0
  9  6  1  0  0  0  0
  1 10  1  0  0  0  0
  1 11  1  0  0  0  0
  1 12  1  0  0  0  0
  3 13  1  0  0  0  0
  4 14  1  0  0  0  0
  4 15  1  0  0  0  0
  4 16  1  0  0  0  0
  5 17  1  0  0  0  0
  5 18  1  0  0  0  0
  8 19  1  0  0  0  0
  9 20  1  0  0  0  0
  9 21  1  0  0  0  0
  9 22  1  0  0  0  0
M  END
>  <energy>
17.628596989872605

$$$$
