3OWW_GLY_A_89
  1228              3D

 10  9  0  0  0  0  0  0  0  0999 V2000
   -1.3917    0.2482   -0.4295 N   0  0  0  0  0  0  0  0  0  0  0  0
   -0.3905   -0.0789    0.5771 C   0  0  0  0  0  0  0  0  0  0  0  0
    0.8462   -0.6283   -0.0745 C   0  0  0  0  0  0  0  0  0  0  0  0
    1.9814   -0.2825    0.2251 O   0  0  0  0  0  0  0  0  0  0  0  0
    0.5728   -1.5719   -1.0085 O   0  0  0  0  0  0  0  0  0  0  0  0
   -2.3168    0.1514   -0.0113 H   0  0  0  0  0  0  0  0  0  0  0  0
   -1.3674   -0.4279   -1.1927 H   0  0  0  0  0  0  0  0  0  0  0  0
   -0.7726   -0.8047    1.3022 H   0  0  0  0  0  0  0  0  0  0  0  0
   -0.1094    0.8352    1.1109 H   0  0  0  0  0  0  0  0  0  0  0  0
    1.2688   -1.6116   -1.6997 H   0  0  0  0  0  0  0  0  0  0  0  0
  2  1  1  0  0  0  0
  3  2  1  0  0  0  0
  4  3  2  0  0  0  0
  5  3  1  0  0  0  0
  1  6  1  0  0  0  0
  1  7  1  0  0  0  0
  2  8  1  0  0  0  0
  2  9  1  0  0  0  0
  5 10  1  0  0  0  0
M  END
>  <energy>
7.1656005238199496

$$$$
