3DS7_GNG_A_120
  1228              3D

 32 34  0  0  0  0  0  0  0  0999 V2000
    2.5051    4.7248   -2.2194 O   0  0  0  0  0  0  0  0  0  0  0  0
    1.2317    4.1988   -1.8656 C   0  0  0  0  0  0  0  0  0  0  0  0
    1.3512    2.7280   -1.4856 C   0  0  0  0  0  0  0  0  0  0  0  0
    2.2942    2.6072   -0.9412 H   0  0  0  0  0  0  0  0  0  0  0  0
    0.3097    2.4520   -0.5503 O   0  0  0  0  0  0  0  0  0  0  0  0
    0.0545    1.0503   -0.5638 C   0  0  0  0  0  0  0  0  0  0  0  0
    0.7810    0.5341    0.0749 H   0  0  0  0  0  0  0  0  0  0  0  0
   -1.2675    0.8527    0.0055 N   0  0  0  0  0  0  0  0  0  0  0  0
   -1.8668    1.6341    0.9907 C   0  0  0  0  0  0  0  0  0  0  0  0
   -2.9843    1.0807    1.4477 N   0  0  0  0  0  0  0  0  0  0  0  0
   -2.9534   -0.1946    0.9519 C   0  0  0  0  0  0  0  0  0  0  0  0
   -1.8555   -0.3611    0.1578 C   0  0  0  0  0  0  0  0  0  0  0  0
   -1.5856   -1.4935   -0.4951 N   0  0  0  0  0  0  0  0  0  0  0  0
   -0.7219   -1.6352   -1.0059 H   0  0  0  0  0  0  0  0  0  0  0  0
   -2.4935   -2.5310   -0.3305 C   0  0  0  0  0  0  0  0  0  0  0  0
   -3.4795   -2.5027    0.5467 N   0  0  0  0  0  0  0  0  0  0  0  0
   -3.8866   -1.2960    1.1345 C   0  0  0  0  0  0  0  0  0  0  0  0
   -4.8924   -1.1940    1.8276 O   0  0  0  0  0  0  0  0  0  0  0  0
   -2.0845   -3.7054   -0.9268 N   0  0  0  0  0  0  0  0  0  0  0  0
    0.2830    0.5962   -2.0129 C   0  0  0  0  0  0  0  0  0  0  0  0
    1.2441    1.6482   -2.5678 C   0  0  0  0  0  0  0  0  0  0  0  0
    0.9739    1.9936   -3.5711 H   0  0  0  0  0  0  0  0  0  0  0  0
    2.5254    1.0146   -2.6747 O   0  0  0  0  0  0  0  0  0  0  0  0
    2.6626    4.5170   -3.1545 H   0  0  0  0  0  0  0  0  0  0  0  0
    0.9040    4.7736   -0.9887 H   0  0  0  0  0  0  0  0  0  0  0  0
    0.5215    4.3834   -2.6761 H   0  0  0  0  0  0  0  0  0  0  0  0
   -1.5870    2.6722    1.1475 H   0  0  0  0  0  0  0  0  0  0  0  0
   -1.1050   -3.7375   -1.2058 H   0  0  0  0  0  0  0  0  0  0  0  0
   -2.6906   -4.0623   -1.6615 H   0  0  0  0  0  0  0  0  0  0  0  0
   -0.6512    0.4722   -2.5802 H   0  0  0  0  0  0  0  0  0  0  0  0
    0.7630   -0.3920   -2.0478 H   0  0  0  0  0  0  0  0  0  0  0  0
    3.2157    1.6899   -2.5667 H   0  0  0  0  0  0  0  0  0  0  0  0
  2  1  1  0  0  0  0
  3  2  1  0  0  0  0
  3  4  1  0  0  0  0
  5  3  1  0  0  0  0
  6  5  1  0  0  0  0
  6  7  1  0  0  0  0
  8  6  1  0  0  0  0
  9  8  1  0  0  0  0
 10  9  2  0  0  0  0
 11 10  1  0  0  0  0
 12 11  2  0  0  0  0
 12  8  1  0  0  0  0
 13 12  1  0  0  0  0
 13 14  1  0  0  0  0
 15 13  1  0  0  0  0
 16 15  2  0  0  0  0
 17 16  1  0  0  0  0
 17 11  1  0  0  0  0
 18 17  2  0  0  0  0
 19 15  1  0  0  0  0
 20  6  1  0  0  0  0
 21 20  1  0  0  0  0
 21 22  1  0  0  0  0
 21  3  1  0  0  0  0
 23 21  1  0  0  0  0
  1 24  1  0  0  0  0
  2 25  1  0  0  0  0
  2 26  1  0  0  0  0
  9 27  1  0  0  0  0
 19 28  1  0  0  0  0
 19 29  1  0  0  0  0
 20 30  1  0  0  0  0
 20 31  1  0  0  0  0
 23 32  1  0  0  0  0
M  END
>  <energy>
73.91047081297188

$$$$
