2KTZ_ISH_A_39
  1228              3D

 50 52  0  0  0  0  0  0  0  0999 V2000
   -0.3056   -3.7151   -2.2975 C   0  0  0  0  0  0  0  0  0  0  0  0
    1.0567   -3.9947   -2.1174 C   0  0  0  0  0  0  0  0  0  0  0  0
    1.8209   -3.0745   -1.3514 C   0  0  0  0  0  0  0  0  0  0  0  0
    1.1511   -2.3050   -0.3823 C   0  0  0  0  0  0  0  0  0  0  0  0
   -0.2367   -2.3421   -0.2883 C   0  0  0  0  0  0  0  0  0  0  0  0
   -0.9423   -3.0197   -1.2811 C   0  0  0  0  0  0  0  0  0  0  0  0
   -2.1985   -2.4259   -1.4726 O   0  0  0  0  0  0  0  0  0  0  0  0
   -2.2389   -1.3316   -0.4855 C   0  0  0  0  0  0  0  0  0  0  0  0
   -1.8609   -0.4474   -1.0209 H   0  0  0  0  0  0  0  0  0  0  0  0
   -1.2372   -1.7149    0.6067 C   0  0  0  0  0  0  0  0  0  0  0  0
   -3.7037   -1.0511   -0.1162 C   0  0  0  0  0  0  0  0  0  0  0  0
   -4.0406   -0.2565    1.0782 N   0  0  0  0  0  0  0  0  0  0  0  0
   -4.9080   -0.9865    2.0022 C   0  0  0  0  0  0  0  0  0  0  0  0
   -2.9411    0.3897    1.7768 C   0  0  0  0  0  0  0  0  0  0  0  0
    2.1616   -1.5394    0.1631 N   0  0  0  0  0  0  0  0  0  0  0  0
    3.3540   -2.1776   -0.1481 C   0  0  0  0  0  0  0  0  0  0  0  0
    3.1453   -3.1753   -0.9818 N   0  0  0  0  0  0  0  0  0  0  0  0
    4.4645   -1.8931    0.5755 N   0  0  0  0  0  0  0  0  0  0  0  0
    2.0987   -0.0908    0.3847 C   0  0  0  0  0  0  0  0  0  0  0  0
    2.7572    0.7084   -0.7614 C   0  0  0  0  0  0  0  0  0  0  0  0
    1.9119    1.8819   -1.2903 C   0  0  0  0  0  0  0  0  0  0  0  0
    2.6048    3.1753   -1.3273 N   0  0  0  0  0  0  0  0  0  0  0  0
    3.8001    3.1806   -2.1615 C   0  0  0  0  0  0  0  0  0  0  0  0
    2.8263    3.7288    0.0031 C   0  0  0  0  0  0  0  0  0  0  0  0
   -0.8944   -4.3411   -2.9711 H   0  0  0  0  0  0  0  0  0  0  0  0
    1.5645   -4.5921   -2.8811 H   0  0  0  0  0  0  0  0  0  0  0  0
   -0.8274   -0.8831    1.1760 H   0  0  0  0  0  0  0  0  0  0  0  0
   -1.6467   -2.4638    1.2934 H   0  0  0  0  0  0  0  0  0  0  0  0
   -4.2728   -1.9908   -0.1239 H   0  0  0  0  0  0  0  0  0  0  0  0
   -4.1249   -0.4779   -0.9553 H   0  0  0  0  0  0  0  0  0  0  0  0
   -4.9321   -0.5270    2.9957 H   0  0  0  0  0  0  0  0  0  0  0  0
   -5.9355   -0.9898    1.6259 H   0  0  0  0  0  0  0  0  0  0  0  0
   -4.5813   -2.0229    2.1227 H   0  0  0  0  0  0  0  0  0  0  0  0
   -2.1805    0.7761    1.0931 H   0  0  0  0  0  0  0  0  0  0  0  0
   -2.4673   -0.2900    2.4920 H   0  0  0  0  0  0  0  0  0  0  0  0
   -3.3088    1.2502    2.3398 H   0  0  0  0  0  0  0  0  0  0  0  0
    4.5353   -2.3605    1.4812 H   0  0  0  0  0  0  0  0  0  0  0  0
    5.3485   -2.0172    0.0849 H   0  0  0  0  0  0  0  0  0  0  0  0
    1.0576    0.1980    0.5595 H   0  0  0  0  0  0  0  0  0  0  0  0
    2.6450    0.0975    1.3184 H   0  0  0  0  0  0  0  0  0  0  0  0
    3.7278    1.0628   -0.3947 H   0  0  0  0  0  0  0  0  0  0  0  0
    2.9846    0.0617   -1.6178 H   0  0  0  0  0  0  0  0  0  0  0  0
    0.9916    1.9931   -0.7034 H   0  0  0  0  0  0  0  0  0  0  0  0
    1.5732    1.6419   -2.3073 H   0  0  0  0  0  0  0  0  0  0  0  0
    3.5772    2.8127   -3.1693 H   0  0  0  0  0  0  0  0  0  0  0  0
    4.6096    2.5701   -1.7474 H   0  0  0  0  0  0  0  0  0  0  0  0
    4.1827    4.2005   -2.2775 H   0  0  0  0  0  0  0  0  0  0  0  0
    2.0481    4.4702    0.2107 H   0  0  0  0  0  0  0  0  0  0  0  0
    2.7729    2.9737    0.7959 H   0  0  0  0  0  0  0  0  0  0  0  0
    3.7944    4.2334    0.0982 H   0  0  0  0  0  0  0  0  0  0  0  0
  2  1  2  0  0  0  0
  3  2  1  0  0  0  0
  4  3  2  0  0  0  0
  5  4  1  0  0  0  0
  6  5  2  0  0  0  0
  6  1  1  0  0  0  0
  7  6  1  0  0  0  0
  8  7  1  0  0  0  0
  8  9  1  0  0  0  0
 10  8  1  0  0  0  0
 10  5  1  0  0  0  0
 11  8  1  0  0  0  0
 12 11  1  0  0  0  0
 13 12  1  0  0  0  0
 14 12  1  0  0  0  0
 15  4  1  0  0  0  0
 16 15  1  0  0  0  0
 17 16  2  0  0  0  0
 17  3  1  0  0  0  0
 18 16  1  0  0  0  0
 19 15  1  0  0  0  0
 20 19  1  0  0  0  0
 21 20  1  0  0  0  0
 22 21  1  0  0  0  0
 23 22  1  0  0  0  0
 24 22  1  0  0  0  0
  1 25  1  0  0  0  0
  2 26  1  0  0  0  0
 10 27  1  0  0  0  0
 10 28  1  0  0  0  0
 11 29  1  0  0  0  0
 11 30  1  0  0  0  0
 13 31  1  0  0  0  0
 13 32  1  0  0  0  0
 13 33  1  0  0  0  0
 14 34  1  0  0  0  0
 14 35  1  0  0  0  0
 14 36  1  0  0  0  0
 18 37  1  0  0  0  0
 18 38  1  0  0  0  0
 19 39  1  0  0  0  0
 19 40  1  0  0  0  0
 20 41  1  0  0  0  0
 20 42  1  0  0  0  0
 21 43  1  0  0  0  0
 21 44  1  0  0  0  0
 23 45  1  0  0  0  0
 23 46  1  0  0  0  0
 23 47  1  0  0  0  0
 24 48  1  0  0  0  0
 24 49  1  0  0  0  0
 24 50  1  0  0  0  0
M  END
>  <energy>
119.98124821558696

$$$$
