ligand.pdb
  1228              3D

 51 53  0  0  0  0  0  0  0  0999 V2000
   -1.5476    3.5343    3.7424 N   0  0  0  0  0  0  0  0  0  0  0  0
   -1.2142    2.1744    3.3272 C   0  0  0  0  0  0  0  0  0  0  0  0
   -2.0463    1.7786    2.7290 H   0  0  0  0  0  0  0  0  0  0  0  0
   -1.0763    1.3352    4.5871 C   0  0  0  0  0  0  0  0  0  0  0  0
   -1.7925    0.3755    4.8577 O   0  0  0  0  0  0  0  0  0  0  0  0
   -0.0330    1.7530    5.3538 O   0  0  0  0  0  0  0  0  0  0  0  0
    0.0659    2.1611    2.4660 C   0  0  0  0  0  0  0  0  0  0  0  0
    0.5325    0.7360    2.1813 C   0  0  0  0  0  0  0  0  0  0  0  0
    1.7758    0.5916    0.8761 S   0  0  0  0  0  0  0  0  0  0  0  0
    1.7072   -0.6825    0.4597 H   0  0  0  0  0  0  0  0  0  0  0  0
    3.4172    0.8540    1.5514 C   0  0  0  0  0  0  0  0  0  0  0  0
    1.4733    1.6473   -0.5615 C   0  0  0  0  0  0  0  0  0  0  0  0
    1.9429    0.9259   -1.8170 C   0  0  0  0  0  0  0  0  0  0  0  0
    2.9263    0.4900   -1.6277 H   0  0  0  0  0  0  0  0  0  0  0  0
    1.0371   -0.1652   -2.0696 O   0  0  0  0  0  0  0  0  0  0  0  0
    0.6214   -0.1204   -3.4415 C   0  0  0  0  0  0  0  0  0  0  0  0
    1.2798   -0.7932   -4.0112 H   0  0  0  0  0  0  0  0  0  0  0  0
    0.7533    1.3359   -3.8547 C   0  0  0  0  0  0  0  0  0  0  0  0
   -0.1418    1.8928   -3.5486 H   0  0  0  0  0  0  0  0  0  0  0  0
    1.9526    1.8159   -3.0607 C   0  0  0  0  0  0  0  0  0  0  0  0
    1.8809    2.8834   -2.8407 H   0  0  0  0  0  0  0  0  0  0  0  0
    3.1662    1.6150   -3.7739 O   0  0  0  0  0  0  0  0  0  0  0  0
    0.9204    1.4967   -5.2476 O   0  0  0  0  0  0  0  0  0  0  0  0
   -0.7550   -0.6050   -3.5755 N   0  0  0  0  0  0  0  0  0  0  0  0
   -1.1535   -1.2974   -4.7056 C   0  0  0  0  0  0  0  0  0  0  0  0
   -2.2991   -1.9197   -4.5232 N   0  0  0  0  0  0  0  0  0  0  0  0
   -2.5229   -1.8515   -3.1724 C   0  0  0  0  0  0  0  0  0  0  0  0
   -3.5618   -2.3570   -2.3696 C   0  0  0  0  0  0  0  0  0  0  0  0
   -4.5858   -3.1593   -2.8926 N   0  0  0  0  0  0  0  0  0  0  0  0
   -3.4561   -2.1582   -1.0258 N   0  0  0  0  0  0  0  0  0  0  0  0
   -2.5002   -1.3191   -0.5711 C   0  0  0  0  0  0  0  0  0  0  0  0
   -1.6651   -0.5580   -1.3080 N   0  0  0  0  0  0  0  0  0  0  0  0
   -1.5509   -1.0754   -2.5456 C   0  0  0  0  0  0  0  0  0  0  0  0
   -2.2889    3.5155    4.4436 H   0  0  0  0  0  0  0  0  0  0  0  0
   -1.9157    4.0658    2.9538 H   0  0  0  0  0  0  0  0  0  0  0  0
   -0.0331    1.3424    6.2430 H   0  0  0  0  0  0  0  0  0  0  0  0
   -0.1378    2.6806    1.5250 H   0  0  0  0  0  0  0  0  0  0  0  0
    0.8603    2.7234    2.9717 H   0  0  0  0  0  0  0  0  0  0  0  0
    0.9748    0.3166    3.0951 H   0  0  0  0  0  0  0  0  0  0  0  0
   -0.3164    0.1080    1.8961 H   0  0  0  0  0  0  0  0  0  0  0  0
    3.4548    0.4945    2.5818 H   0  0  0  0  0  0  0  0  0  0  0  0
    4.1511    0.2940    0.9667 H   0  0  0  0  0  0  0  0  0  0  0  0
    3.6830    1.9111    1.5377 H   0  0  0  0  0  0  0  0  0  0  0  0
    0.4073    1.8779   -0.6289 H   0  0  0  0  0  0  0  0  0  0  0  0
    2.0167    2.5889   -0.4338 H   0  0  0  0  0  0  0  0  0  0  0  0
    3.2657    0.6665   -3.9607 H   0  0  0  0  0  0  0  0  0  0  0  0
    1.1637    2.4228   -5.4160 H   0  0  0  0  0  0  0  0  0  0  0  0
   -0.7037   -1.0943   -5.6719 H   0  0  0  0  0  0  0  0  0  0  0  0
   -4.8093   -2.9215   -3.8558 H   0  0  0  0  0  0  0  0  0  0  0  0
   -4.3371   -4.1431   -2.8243 H   0  0  0  0  0  0  0  0  0  0  0  0
   -2.5158   -1.1281    0.4929 H   0  0  0  0  0  0  0  0  0  0  0  0
  2  1  1  0  0  0  0
  2  3  1  0  0  0  0
  4  2  1  0  0  0  0
  5  4  2  0  0  0  0
  6  4  1  0  0  0  0
  7  2  1  0  0  0  0
  8  7  1  0  0  0  0
  9  8  1  0  0  0  0
  9 10  1  0  0  0  0
 11  9  1  0  0  0  0
 12  9  1  0  0  0  0
 13 12  1  0  0  0  0
 13 14  1  0  0  0  0
 15 13  1  0  0  0  0
 16 15  1  0  0  0  0
 16 17  1  0  0  0  0
 18 16  1  0  0  0  0
 18 19  1  0  0  0  0
 20 18  1  0  0  0  0
 20 21  1  0  0  0  0
 20 13  1  0  0  0  0
 22 20  1  0  0  0  0
 23 18  1  0  0  0  0
 24 16  1  0  0  0  0
 25 24  1  0  0  0  0
 26 25  2  0  0  0  0
 27 26  1  0  0  0  0
 28 27  1  0  0  0  0
 29 28  1  0  0  0  0
 30 28  2  0  0  0  0
 31 30  1  0  0  0  0
 32 31  2  0  0  0  0
 33 32  1  0  0  0  0
 33 24  1  0  0  0  0
 33 27  2  0  0  0  0
  1 34  1  0  0  0  0
  1 35  1  0  0  0  0
  6 36  1  0  0  0  0
  7 37  1  0  0  0  0
  7 38  1  0  0  0  0
  8 39  1  0  0  0  0
  8 40  1  0  0  0  0
 11 41  1  0  0  0  0
 11 42  1  0  0  0  0
 11 43  1  0  0  0  0
 12 44  1  0  0  0  0
 12 45  1  0  0  0  0
 22 46  1  0  0  0  0
 23 47  1  0  0  0  0
 25 48  1  0  0  0  0
 29 49  1  0  0  0  0
 29 50  1  0  0  0  0
 31 51  1  0  0  0  0
M  END
>  <energy>
73.058135613065318

$$$$
