4JF2_PRF_A_101
  1228              3D

 22 23  0  0  0  0  0  0  0  0999 V2000
    1.9902    0.4937   -0.8686 N   0  0  0  0  0  0  0  0  0  0  0  0
    2.6184    0.9347   -1.5324 H   0  0  0  0  0  0  0  0  0  0  0  0
    2.5466    0.0356    0.3445 C   0  0  0  0  0  0  0  0  0  0  0  0
    1.8306   -0.5557    1.2716 N   0  0  0  0  0  0  0  0  0  0  0  0
    0.5078   -0.6059    0.9851 C   0  0  0  0  0  0  0  0  0  0  0  0
   -0.1405   -0.1880   -0.1594 C   0  0  0  0  0  0  0  0  0  0  0  0
    0.6354    0.4321   -1.2105 C   0  0  0  0  0  0  0  0  0  0  0  0
    0.1565    0.8639   -2.2533 O   0  0  0  0  0  0  0  0  0  0  0  0
   -1.5225   -0.4700   -0.0097 C   0  0  0  0  0  0  0  0  0  0  0  0
   -2.6043   -0.1911   -0.9909 C   0  0  0  0  0  0  0  0  0  0  0  0
   -3.2360   -1.4394   -1.4058 N   0  0  0  0  0  0  0  0  0  0  0  0
   -1.6596   -1.0744    1.2313 C   0  0  0  0  0  0  0  0  0  0  0  0
   -0.4233   -1.1574    1.8215 N   0  0  0  0  0  0  0  0  0  0  0  0
   -0.2410   -1.5552    2.7339 H   0  0  0  0  0  0  0  0  0  0  0  0
    3.9060    0.2255    0.4781 N   0  0  0  0  0  0  0  0  0  0  0  0
   -2.2146    0.3211   -1.8760 H   0  0  0  0  0  0  0  0  0  0  0  0
   -3.3438    0.4807   -0.5410 H   0  0  0  0  0  0  0  0  0  0  0  0
   -3.3334   -1.4463   -2.4201 H   0  0  0  0  0  0  0  0  0  0  0  0
   -2.6485   -2.2438   -1.1847 H   0  0  0  0  0  0  0  0  0  0  0  0
   -2.5295   -1.4751    1.7345 H   0  0  0  0  0  0  0  0  0  0  0  0
    4.2629    1.0016   -0.0735 H   0  0  0  0  0  0  0  0  0  0  0  0
    4.2285    0.3342    1.4386 H   0  0  0  0  0  0  0  0  0  0  0  0
  1  2  1  0  0  0  0
  3  1  1  0  0  0  0
  4  3  2  0  0  0  0
  5  4  1  0  0  0  0
  6  5  2  0  0  0  0
  7  6  1  0  0  0  0
  7  1  1  0  0  0  0
  8  7  2  0  0  0  0
  9  6  1  0  0  0  0
 10  9  1  0  0  0  0
 11 10  1  0  0  0  0
 12  9  2  0  0  0  0
 13 12  1  0  0  0  0
 13 14  1  0  0  0  0
 13  5  1  0  0  0  0
 15  3  1  0  0  0  0
 10 16  1  0  0  0  0
 10 17  1  0  0  0  0
 11 18  1  0  0  0  0
 11 19  1  0  0  0  0
 12 20  1  0  0  0  0
 15 21  1  0  0  0  0
 15 22  1  0  0  0  0
M  END
>  <energy>
24.192365870065416

$$$$
