ligand.pdb
  1228              3D

 17 16  0  0  0  0  0  0  0  0999 V2000
   -2.5544    0.1536   -0.5924 P   0  0  0  0  0  0  0  0  0  0  0  0
   -2.3270   -0.6703   -1.7152 H   0  0  0  0  0  0  0  0  0  0  0  0
   -2.7998    1.6360   -0.6966 O   0  0  0  0  0  0  0  0  0  0  0  0
   -3.7602   -0.6040    0.1859 O   0  0  0  0  0  0  0  0  0  0  0  0
   -1.3088   -0.2006    0.3915 O   0  0  0  0  0  0  0  0  0  0  0  0
   -0.0304    0.3364    0.0756 C   0  0  0  0  0  0  0  0  0  0  0  0
    0.5896   -0.4680   -1.0603 C   0  0  0  0  0  0  0  0  0  0  0  0
    2.0232   -0.0330   -1.3234 C   0  0  0  0  0  0  0  0  0  0  0  0
    2.5134   -0.7280   -2.4634 O   0  0  0  0  0  0  0  0  0  0  0  0
   -3.6915   -0.7273    1.1562 H   0  0  0  0  0  0  0  0  0  0  0  0
    0.5891    0.2847    0.9777 H   0  0  0  0  0  0  0  0  0  0  0  0
   -0.1379    1.3915   -0.2000 H   0  0  0  0  0  0  0  0  0  0  0  0
    0.5663   -1.5355   -0.8130 H   0  0  0  0  0  0  0  0  0  0  0  0
   -0.0016   -0.3291   -1.9723 H   0  0  0  0  0  0  0  0  0  0  0  0
    2.0751    1.0404   -1.5356 H   0  0  0  0  0  0  0  0  0  0  0  0
    2.6687   -0.2546   -0.4641 H   0  0  0  0  0  0  0  0  0  0  0  0
    2.9091   -1.5582   -2.1473 H   0  0  0  0  0  0  0  0  0  0  0  0
  1  2  1  0  0  0  0
  3  1  2  0  0  0  0
  4  1  1  0  0  0  0
  5  1  1  0  0  0  0
  6  5  1  0  0  0  0
  7  6  1  0  0  0  0
  8  7  1  0  0  0  0
  9  8  1  0  0  0  0
  4 10  1  0  0  0  0
  6 11  1  0  0  0  0
  6 12  1  0  0  0  0
  7 13  1  0  0  0  0
  7 14  1  0  0  0  0
  8 15  1  0  0  0  0
  8 16  1  0  0  0  0
  9 17  1  0  0  0  0
M  END
>  <energy>
-4.3285374537506733

$$$$
