3E5E_SAH_A_220
  1228              3D

 46 48  0  0  0  0  0  0  0  0999 V2000
    0.1681   -1.9256   -4.4149 N   0  0  0  0  0  0  0  0  0  0  0  0
    1.1494   -1.1505   -5.1725 C   0  0  0  0  0  0  0  0  0  0  0  0
    0.6404   -0.7702   -6.0661 H   0  0  0  0  0  0  0  0  0  0  0  0
    1.7551    0.0463   -4.4084 C   0  0  0  0  0  0  0  0  0  0  0  0
    1.1590    0.2868   -3.0229 C   0  0  0  0  0  0  0  0  0  0  0  0
    2.0135    1.6339   -2.1560 S   0  0  0  0  0  0  0  0  0  0  0  0
    1.0770    1.6008   -0.5836 C   0  0  0  0  0  0  0  0  0  0  0  0
   -0.2729    2.3049   -0.7323 C   0  0  0  0  0  0  0  0  0  0  0  0
   -0.2171    3.1029   -1.4860 H   0  0  0  0  0  0  0  0  0  0  0  0
   -1.2812    1.3534   -1.1410 O   0  0  0  0  0  0  0  0  0  0  0  0
   -2.5700    1.8054   -0.6520 C   0  0  0  0  0  0  0  0  0  0  0  0
   -3.1970    2.0663   -1.5144 H   0  0  0  0  0  0  0  0  0  0  0  0
   -2.3033    3.0199    0.2283 C   0  0  0  0  0  0  0  0  0  0  0  0
   -2.9546    3.1085    1.1003 H   0  0  0  0  0  0  0  0  0  0  0  0
   -0.8317    2.8524    0.5713 C   0  0  0  0  0  0  0  0  0  0  0  0
   -0.6824    2.1284    1.3812 H   0  0  0  0  0  0  0  0  0  0  0  0
   -0.2146    4.0800    0.9113 O   0  0  0  0  0  0  0  0  0  0  0  0
   -2.4715    4.2013   -0.5549 O   0  0  0  0  0  0  0  0  0  0  0  0
   -3.2524    0.6747   -0.0084 N   0  0  0  0  0  0  0  0  0  0  0  0
   -3.6581   -0.4268   -0.7382 C   0  0  0  0  0  0  0  0  0  0  0  0
   -4.0867   -1.3924    0.0448 N   0  0  0  0  0  0  0  0  0  0  0  0
   -3.5960   -1.0701    1.2865 C   0  0  0  0  0  0  0  0  0  0  0  0
   -3.6302   -1.7514    2.5172 C   0  0  0  0  0  0  0  0  0  0  0  0
   -4.2184   -3.0169    2.6511 N   0  0  0  0  0  0  0  0  0  0  0  0
   -2.9388   -1.1871    3.5510 N   0  0  0  0  0  0  0  0  0  0  0  0
   -2.5021    0.0831    3.4039 C   0  0  0  0  0  0  0  0  0  0  0  0
   -2.7633    0.9121    2.3797 N   0  0  0  0  0  0  0  0  0  0  0  0
   -3.0137    0.1939    1.2656 C   0  0  0  0  0  0  0  0  0  0  0  0
    2.2445   -2.0725   -5.6674 C   0  0  0  0  0  0  0  0  0  0  0  0
    2.8967   -1.8652   -6.6823 O   0  0  0  0  0  0  0  0  0  0  0  0
    2.4500   -3.1417   -4.8599 O   0  0  0  0  0  0  0  0  0  0  0  0
   -0.1556   -2.7152   -4.9708 H   0  0  0  0  0  0  0  0  0  0  0  0
    0.6234   -2.3354   -3.5989 H   0  0  0  0  0  0  0  0  0  0  0  0
    2.8444   -0.0701   -4.3231 H   0  0  0  0  0  0  0  0  0  0  0  0
    1.5940    0.9450   -5.0203 H   0  0  0  0  0  0  0  0  0  0  0  0
    1.2522   -0.6038   -2.3956 H   0  0  0  0  0  0  0  0  0  0  0  0
    0.1018    0.5473   -3.1219 H   0  0  0  0  0  0  0  0  0  0  0  0
    0.9637    0.5651   -0.2391 H   0  0  0  0  0  0  0  0  0  0  0  0
    1.7021    2.1132    0.1509 H   0  0  0  0  0  0  0  0  0  0  0  0
    0.1361    3.9877    1.8128 H   0  0  0  0  0  0  0  0  0  0  0  0
   -3.3939    4.2302   -0.8610 H   0  0  0  0  0  0  0  0  0  0  0  0
   -3.8568   -0.3542   -1.7978 H   0  0  0  0  0  0  0  0  0  0  0  0
   -3.9355   -3.6408    1.8998 H   0  0  0  0  0  0  0  0  0  0  0  0
   -5.2322   -2.9473    2.6828 H   0  0  0  0  0  0  0  0  0  0  0  0
   -2.0178    0.5196    4.2671 H   0  0  0  0  0  0  0  0  0  0  0  0
    2.1250   -3.9723   -5.2701 H   0  0  0  0  0  0  0  0  0  0  0  0
  2  1  1  0  0  0  0
  2  3  1  0  0  0  0
  4  2  1  0  0  0  0
  5  4  1  0  0  0  0
  6  5  1  0  0  0  0
  7  6  1  0  0  0  0
  8  7  1  0  0  0  0
  8  9  1  0  0  0  0
 10  8  1  0  0  0  0
 11 10  1  0  0  0  0
 11 12  1  0  0  0  0
 13 11  1  0  0  0  0
 13 14  1  0  0  0  0
 15 13  1  0  0  0  0
 15 16  1  0  0  0  0
 15  8  1  0  0  0  0
 17 15  1  0  0  0  0
 18 13  1  0  0  0  0
 19 11  1  0  0  0  0
 20 19  1  0  0  0  0
 21 20  2  0  0  0  0
 22 21  1  0  0  0  0
 23 22  1  0  0  0  0
 24 23  1  0  0  0  0
 25 23  2  0  0  0  0
 26 25  1  0  0  0  0
 27 26  2  0  0  0  0
 28 27  1  0  0  0  0
 28 19  1  0  0  0  0
 28 22  2  0  0  0  0
 29  2  1  0  0  0  0
 30 29  2  0  0  0  0
 31 29  1  0  0  0  0
  1 32  1  0  0  0  0
  1 33  1  0  0  0  0
  4 34  1  0  0  0  0
  4 35  1  0  0  0  0
  5 36  1  0  0  0  0
  5 37  1  0  0  0  0
  7 38  1  0  0  0  0
  7 39  1  0  0  0  0
 17 40  1  0  0  0  0
 18 41  1  0  0  0  0
 20 42  1  0  0  0  0
 24 43  1  0  0  0  0
 24 44  1  0  0  0  0
 26 45  1  0  0  0  0
 31 46  1  0  0  0  0
M  END
>  <energy>
97.772668984877754

$$$$
