ligand.pdb
  1228              3D

 27 26  0  0  0  0  0  0  0  0999 V2000
   -3.0126    1.3139    0.4680 N   0  3  0  0  0  0  0  0  0  0  0  0
   -2.8607    1.4007    1.4816 H   0  0  0  0  0  0  0  0  0  0  0  0
   -3.9536    0.9209    0.3322 H   0  0  0  0  0  0  0  0  0  0  0  0
   -3.0264    2.2696    0.0881 H   0  0  0  0  0  0  0  0  0  0  0  0
   -1.9535    0.4737   -0.1573 C   0  0  0  0  0  0  0  0  0  0  0  0
   -1.0380    0.6331    0.4213 H   0  0  0  0  0  0  0  0  0  0  0  0
   -1.7131    0.9552   -1.5739 C   0  0  0  0  0  0  0  0  0  0  0  0
   -1.6027    0.2155   -2.5484 O   0  0  0  0  0  0  0  0  0  0  0  0
   -2.3785   -0.9963   -0.1524 C   0  0  0  0  0  0  0  0  0  0  0  0
   -2.6559   -1.5906    1.2322 C   0  0  0  0  0  0  0  0  0  0  0  0
   -3.3032   -2.9650    1.0726 C   0  0  0  0  0  0  0  0  0  0  0  0
   -3.6939   -3.5325    2.3661 N   0  0  0  0  0  0  0  0  0  0  0  0
   -2.7496   -4.0811    3.2258 C   0  0  0  0  0  0  0  0  0  0  0  0
   -2.6242   -3.5651    4.5066 N   0  3  0  0  0  0  0  0  0  0  0  0
   -1.9617   -3.9526    5.1731 H   0  0  0  0  0  0  0  0  0  0  0  0
   -3.2020   -2.7849    4.8101 H   0  0  0  0  0  0  0  0  0  0  0  0
   -1.9529   -5.1442    2.8241 N   0  0  0  0  0  0  0  0  0  0  0  0
   -1.6186    2.0467   -1.7003 H   0  0  0  0  0  0  0  0  0  0  0  0
   -1.5746   -1.5911   -0.6078 H   0  0  0  0  0  0  0  0  0  0  0  0
   -3.2643   -1.1214   -0.7887 H   0  0  0  0  0  0  0  0  0  0  0  0
   -3.3202   -0.9436    1.8156 H   0  0  0  0  0  0  0  0  0  0  0  0
   -1.7158   -1.6866    1.7884 H   0  0  0  0  0  0  0  0  0  0  0  0
   -4.2158   -2.8876    0.4707 H   0  0  0  0  0  0  0  0  0  0  0  0
   -2.6274   -3.6639    0.5680 H   0  0  0  0  0  0  0  0  0  0  0  0
   -4.6448   -3.4141    2.7073 H   0  0  0  0  0  0  0  0  0  0  0  0
   -0.9831   -5.2129    3.1173 H   0  0  0  0  0  0  0  0  0  0  0  0
   -2.3182   -5.8830    2.2254 H   0  0  0  0  0  0  0  0  0  0  0  0
  1  2  1  0  0  0  0
  1  3  1  0  0  0  0
  1  4  1  0  0  0  0
  5  1  1  0  0  0  0
  5  6  1  0  0  0  0
  7  5  1  0  0  0  0
  8  7  2  0  0  0  0
  9  5  1  0  0  0  0
 10  9  1  0  0  0  0
 11 10  1  0  0  0  0
 12 11  1  0  0  0  0
 13 12  1  0  0  0  0
 14 13  2  0  0  0  0
 14 15  1  0  0  0  0
 14 16  1  0  0  0  0
 17 13  1  0  0  0  0
  7 18  1  0  0  0  0
  9 19  1  0  0  0  0
  9 20  1  0  0  0  0
 10 21  1  0  0  0  0
 10 22  1  0  0  0  0
 11 23  1  0  0  0  0
 11 24  1  0  0  0  0
 12 25  1  0  0  0  0
 17 26  1  0  0  0  0
 17 27  1  0  0  0  0
M  CHG  2   1   1  14   1
M  END
>  <energy>
30.968166503974484

$$$$
