3DIR_IEL_A_175
  1228              3D

 30 29  0  0  0  0  0  0  0  0999 V2000
   -4.2747   -0.8681    1.6171 O   0  0  0  0  0  0  0  0  0  0  0  0
   -3.6623   -0.2499    0.7545 C   0  0  0  0  0  0  0  0  0  0  0  0
   -3.6596    1.1079    0.6542 O   0  0  0  0  0  0  0  0  0  0  0  0
   -2.7995   -0.8782   -0.3306 C   0  0  0  0  0  0  0  0  0  0  0  0
   -2.3065   -0.0656   -0.8691 H   0  0  0  0  0  0  0  0  0  0  0  0
   -1.7707   -1.6604    0.3543 N   0  0  0  0  0  0  0  0  0  0  0  0
   -3.5177   -1.7425   -1.3632 C   0  0  0  0  0  0  0  0  0  0  0  0
   -4.8606   -1.1375   -1.8020 C   0  0  0  0  0  0  0  0  0  0  0  0
   -5.2426   -1.4372   -3.2597 C   0  0  0  0  0  0  0  0  0  0  0  0
   -5.4380   -0.1826   -4.1169 C   0  0  0  0  0  0  0  0  0  0  0  0
   -4.1946    0.5407   -4.3104 N   0  0  0  0  0  0  0  0  0  0  0  0
   -4.1463    1.9239   -4.3952 C   0  0  0  0  0  0  0  0  0  0  0  0
   -3.7148    2.5669   -5.4361 N   0  0  0  0  0  0  0  0  0  0  0  0
   -4.9457    2.7436   -3.4058 C   0  0  0  0  0  0  0  0  0  0  0  0
   -3.6765    1.5792    1.5124 H   0  0  0  0  0  0  0  0  0  0  0  0
   -1.1141   -2.0376   -0.3311 H   0  0  0  0  0  0  0  0  0  0  0  0
   -1.2282   -0.9966    0.8943 H   0  0  0  0  0  0  0  0  0  0  0  0
   -2.8598   -1.7910   -2.2370 H   0  0  0  0  0  0  0  0  0  0  0  0
   -3.6468   -2.7794   -1.0226 H   0  0  0  0  0  0  0  0  0  0  0  0
   -4.8673   -0.0571   -1.6081 H   0  0  0  0  0  0  0  0  0  0  0  0
   -5.6419   -1.5403   -1.1480 H   0  0  0  0  0  0  0  0  0  0  0  0
   -6.2123   -1.9403   -3.2500 H   0  0  0  0  0  0  0  0  0  0  0  0
   -4.5787   -2.1535   -3.7579 H   0  0  0  0  0  0  0  0  0  0  0  0
   -6.2056    0.4591   -3.6734 H   0  0  0  0  0  0  0  0  0  0  0  0
   -5.8751   -0.4637   -5.0784 H   0  0  0  0  0  0  0  0  0  0  0  0
   -3.4588    0.0368   -4.8009 H   0  0  0  0  0  0  0  0  0  0  0  0
   -3.0684    1.9712   -5.9639 H   0  0  0  0  0  0  0  0  0  0  0  0
   -5.6810    3.3592   -3.9362 H   0  0  0  0  0  0  0  0  0  0  0  0
   -5.4576    2.0889   -2.7073 H   0  0  0  0  0  0  0  0  0  0  0  0
   -4.3060    3.3884   -2.8018 H   0  0  0  0  0  0  0  0  0  0  0  0
  2  1  2  0  0  0  0
  3  2  1  0  0  0  0
  4  2  1  0  0  0  0
  4  5  1  0  0  0  0
  6  4  1  0  0  0  0
  7  4  1  0  0  0  0
  8  7  1  0  0  0  0
  9  8  1  0  0  0  0
 10  9  1  0  0  0  0
 11 10  1  0  0  0  0
 12 11  1  0  0  0  0
 13 12  2  0  0  0  0
 14 12  1  0  0  0  0
  3 15  1  0  0  0  0
  6 16  1  0  0  0  0
  6 17  1  0  0  0  0
  7 18  1  0  0  0  0
  7 19  1  0  0  0  0
  8 20  1  0  0  0  0
  8 21  1  0  0  0  0
  9 22  1  0  0  0  0
  9 23  1  0  0  0  0
 10 24  1  0  0  0  0
 10 25  1  0  0  0  0
 11 26  1  0  0  0  0
 13 27  1  0  0  0  0
 14 28  1  0  0  0  0
 14 29  1  0  0  0  0
 14 30  1  0  0  0  0
M  END
>  <energy>
38.066396880634443

$$$$
