1J7T_PAR_A_45
  1228              3D

 87 90  0  0  0  0  0  0  0  0999 V2000
    3.0623   18.2481    3.6002 C   0  0  0  0  0  0  0  0  0  0  0  0
    2.4004   18.8679    3.0464 H   0  0  0  0  0  0  0  0  0  0  0  0
    3.9612   17.8526    2.5627 O   0  0  0  0  0  0  0  0  0  0  0  0
    4.2738   19.0482    1.8591 C   0  0  0  0  0  0  0  0  0  0  0  0
    4.8717   19.5720    2.6199 H   0  0  0  0  0  0  0  0  0  0  0  0
    3.0393   19.7934    1.3122 C   0  0  0  0  0  0  0  0  0  0  0  0
    3.8596   20.4955    1.5162 H   0  0  0  0  0  0  0  0  0  0  0  0
    2.8272   21.1384    0.5820 C   0  0  0  0  0  0  0  0  0  0  0  0
    4.3111   21.6786    0.0342 C   0  0  0  0  0  0  0  0  0  0  0  0
    4.3036   21.7400   -1.0613 H   0  0  0  0  0  0  0  0  0  0  0  0
    4.5320   23.0356    0.5797 N   0  0  0  0  0  0  0  0  0  0  0  0
    5.6354   20.7050    0.4740 C   0  0  0  0  0  0  0  0  0  0  0  0
    5.9483   21.0348    1.4800 H   0  0  0  0  0  0  0  0  0  0  0  0
    5.1768   19.1496    0.5693 C   0  0  0  0  0  0  0  0  0  0  0  0
    4.5838   19.4221   -0.2985 H   0  0  0  0  0  0  0  0  0  0  0  0
    5.4009   17.8699    0.0331 O   0  0  0  0  0  0  0  0  0  0  0  0
    6.3008   17.8598   -1.0712 C   0  0  0  0  0  0  0  0  0  0  0  0
    6.0909   18.7320   -1.6548 H   0  0  0  0  0  0  0  0  0  0  0  0
    7.5860   17.7202   -0.3646 C   0  0  0  0  0  0  0  0  0  0  0  0
    7.6256   18.3185    0.5774 H   0  0  0  0  0  0  0  0  0  0  0  0
    8.5603   18.1390   -1.3214 O   0  0  0  0  0  0  0  0  0  0  0  0
    7.3967   16.2493   -0.0289 C   0  0  0  0  0  0  0  0  0  0  0  0
    6.6248   16.2345    0.7321 H   0  0  0  0  0  0  0  0  0  0  0  0
    8.4270   15.7529    0.7891 O   0  0  0  0  0  0  0  0  0  0  0  0
    9.7802   16.2489    0.6211 C   0  0  0  0  0  0  0  0  0  0  0  0
   10.1082   15.7832   -0.3268 H   0  0  0  0  0  0  0  0  0  0  0  0
   10.7227   15.9034    1.8341 C   0  0  0  0  0  0  0  0  0  0  0  0
   10.6860   14.8166    2.0143 H   0  0  0  0  0  0  0  0  0  0  0  0
   10.3293   16.5863    3.0745 N   0  0  0  0  0  0  0  0  0  0  0  0
   12.1635   16.3685    1.4716 C   0  0  0  0  0  0  0  0  0  0  0  0
   12.5006   17.1791    2.1228 H   0  0  0  0  0  0  0  0  0  0  0  0
   13.0390   15.2730    1.6868 O   0  0  0  0  0  0  0  0  0  0  0  0
   12.2347   16.8183   -0.0004 C   0  0  0  0  0  0  0  0  0  0  0  0
   11.9907   15.9535   -0.6250 H   0  0  0  0  0  0  0  0  0  0  0  0
   13.5466   17.1402   -0.4084 O   0  0  0  0  0  0  0  0  0  0  0  0
   11.2239   17.9484   -0.2733 C   0  0  0  0  0  0  0  0  0  0  0  0
   10.9241   17.8750   -1.3185 H   0  0  0  0  0  0  0  0  0  0  0  0
   10.0142   17.6806    0.4720 O   0  0  0  0  0  0  0  0  0  0  0  0
   11.7831   19.3800   -0.0650 C   0  0  0  0  0  0  0  0  0  0  0  0
   11.4051   20.3027   -1.1351 N   0  0  0  0  0  0  0  0  0  0  0  0
    6.8735   15.5517   -1.3555 C   0  0  0  0  0  0  0  0  0  0  0  0
    7.8332   15.3773   -1.9010 H   0  0  0  0  0  0  0  0  0  0  0  0
    6.1423   16.6900   -1.9502 O   0  0  0  0  0  0  0  0  0  0  0  0
    5.8720   14.4041   -1.3993 C   0  0  0  0  0  0  0  0  0  0  0  0
    5.5026   14.1670   -2.7726 O   0  0  0  0  0  0  0  0  0  0  0  0
    6.7408   20.9532   -0.3693 O   0  0  0  0  0  0  0  0  0  0  0  0
    2.5632   18.8336    0.2600 N   0  0  0  0  0  0  0  0  0  0  0  0
    3.5384   19.1370    4.7571 C   0  0  0  0  0  0  0  0  0  0  0  0
    4.3716   19.7495    4.4564 H   0  0  0  0  0  0  0  0  0  0  0  0
    3.9578   18.4155    5.9491 N   0  0  0  0  0  0  0  0  0  0  0  0
    2.3480   20.0802    5.0537 C   0  0  0  0  0  0  0  0  0  0  0  0
    2.5139   20.6258    5.9985 H   0  0  0  0  0  0  0  0  0  0  0  0
    2.2357   21.0729    4.0069 O   0  0  0  0  0  0  0  0  0  0  0  0
    0.9853   19.2952    5.1445 C   0  0  0  0  0  0  0  0  0  0  0  0
    0.1568   19.9877    4.9201 H   0  0  0  0  0  0  0  0  0  0  0  0
    0.8455   18.9101    6.5167 O   0  0  0  0  0  0  0  0  0  0  0  0
    0.8355   17.9875    4.2754 C   0  0  0  0  0  0  0  0  0  0  0  0
    0.1879   17.2897    4.8306 H   0  0  0  0  0  0  0  0  0  0  0  0
    2.1153   17.3049    4.0936 O   0  0  0  0  0  0  0  0  0  0  0  0
    0.1734   18.1480    2.8802 C   0  0  0  0  0  0  0  0  0  0  0  0
   -0.1070   19.4977    2.5393 O   0  0  0  0  0  0  0  0  0  0  0  0
    2.1760   21.1143   -0.3022 H   0  0  0  0  0  0  0  0  0  0  0  0
    2.3893   21.8816    1.2474 H   0  0  0  0  0  0  0  0  0  0  0  0
    3.6319   23.4072    0.8965 H   0  0  0  0  0  0  0  0  0  0  0  0
    4.8149   23.6623   -0.1742 H   0  0  0  0  0  0  0  0  0  0  0  0
    8.6199   19.0975   -1.2690 H   0  0  0  0  0  0  0  0  0  0  0  0
    9.8809   15.9262    3.7077 H   0  0  0  0  0  0  0  0  0  0  0  0
    9.6900   17.3629    2.8986 H   0  0  0  0  0  0  0  0  0  0  0  0
   12.6524   14.4942    1.2450 H   0  0  0  0  0  0  0  0  0  0  0  0
   13.5950   16.9952   -1.3807 H   0  0  0  0  0  0  0  0  0  0  0  0
   12.8819   19.4006   -0.0631 H   0  0  0  0  0  0  0  0  0  0  0  0
   11.4911   19.8189    0.8925 H   0  0  0  0  0  0  0  0  0  0  0  0
   10.4100   20.4956   -1.1035 H   0  0  0  0  0  0  0  0  0  0  0  0
   11.6057   19.9002   -2.0472 H   0  0  0  0  0  0  0  0  0  0  0  0
    6.2696   13.4474   -1.0603 H   0  0  0  0  0  0  0  0  0  0  0  0
    4.9979   14.6764   -0.8044 H   0  0  0  0  0  0  0  0  0  0  0  0
    5.0778   14.9659   -3.1434 H   0  0  0  0  0  0  0  0  0  0  0  0
    7.1540   21.7660   -0.0002 H   0  0  0  0  0  0  0  0  0  0  0  0
    1.5606   18.8172    0.2041 H   0  0  0  0  0  0  0  0  0  0  0  0
    2.9049   19.0369   -0.6901 H   0  0  0  0  0  0  0  0  0  0  0  0
    3.2045   17.8223    6.2714 H   0  0  0  0  0  0  0  0  0  0  0  0
    4.1268   19.0950    6.6994 H   0  0  0  0  0  0  0  0  0  0  0  0
    3.0312   21.6350    4.0877 H   0  0  0  0  0  0  0  0  0  0  0  0
    0.7119   19.7445    7.0096 H   0  0  0  0  0  0  0  0  0  0  0  0
    0.7956   17.7051    2.0916 H   0  0  0  0  0  0  0  0  0  0  0  0
   -0.7750   17.6067    2.8457 H   0  0  0  0  0  0  0  0  0  0  0  0
    0.7299   19.9233    2.2831 H   0  0  0  0  0  0  0  0  0  0  0  0
  1 48  1  0  0  0  0
  1 59  1  0  0  0  0
  1  3  1  0  0  0  0
  1  2  1  0  0  0  0
  4  6  1  0  0  0  0
  4  5  1  0  0  0  0
  4  3  1  0  0  0  0
  6  7  1  0  0  0  0
  6  8  1  0  0  0  0
  6 47  1  0  0  0  0
  8  9  1  0  0  0  0
  8 62  1  0  0  0  0
  8 63  1  0  0  0  0
  9 12  1  0  0  0  0
  9 11  1  0  0  0  0
  9 10  1  0  0  0  0
 11 64  1  0  0  0  0
 11 65  1  0  0  0  0
 12 13  1  0  0  0  0
 12 14  1  0  0  0  0
 12 46  1  0  0  0  0
 14  4  1  0  0  0  0
 14 16  1  0  0  0  0
 14 15  1  0  0  0  0
 16 17  1  0  0  0  0
 17 18  1  0  0  0  0
 17 19  1  0  0  0  0
 17 43  1  0  0  0  0
 19 22  1  0  0  0  0
 19 21  1  0  0  0  0
 19 20  1  0  0  0  0
 21 66  1  0  0  0  0
 22 23  1  0  0  0  0
 22 24  1  0  0  0  0
 22 41  1  0  0  0  0
 25 27  1  0  0  0  0
 25 38  1  0  0  0  0
 25 26  1  0  0  0  0
 25 24  1  0  0  0  0
 27 30  1  0  0  0  0
 27 29  1  0  0  0  0
 27 28  1  0  0  0  0
 29 67  1  0  0  0  0
 29 68  1  0  0  0  0
 30 32  1  0  0  0  0
 30 31  1  0  0  0  0
 32 69  1  0  0  0  0
 33 30  1  0  0  0  0
 33 34  1  0  0  0  0
 33 35  1  0  0  0  0
 35 70  1  0  0  0  0
 36 33  1  0  0  0  0
 36 37  1  0  0  0  0
 36 38  1  0  0  0  0
 36 39  1  0  0  0  0
 39 40  1  0  0  0  0
 39 71  1  0  0  0  0
 39 72  1  0  0  0  0
 40 73  1  0  0  0  0
 40 74  1  0  0  0  0
 41 43  1  0  0  0  0
 41 44  1  0  0  0  0
 41 42  1  0  0  0  0
 44 45  1  0  0  0  0
 44 75  1  0  0  0  0
 44 76  1  0  0  0  0
 45 77  1  0  0  0  0
 46 78  1  0  0  0  0
 47 79  1  0  0  0  0
 47 80  1  0  0  0  0
 48 51  1  0  0  0  0
 48 50  1  0  0  0  0
 48 49  1  0  0  0  0
 50 81  1  0  0  0  0
 50 82  1  0  0  0  0
 51 54  1  0  0  0  0
 51 53  1  0  0  0  0
 51 52  1  0  0  0  0
 53 83  1  0  0  0  0
 54 55  1  0  0  0  0
 54 56  1  0  0  0  0
 54 57  1  0  0  0  0
 56 84  1  0  0  0  0
 57 59  1  0  0  0  0
 57 60  1  0  0  0  0
 57 58  1  0  0  0  0
 60 61  1  0  0  0  0
 60 85  1  0  0  0  0
 60 86  1  0  0  0  0
 61 87  1  0  0  0  0
M  END
>  <energy>
432.4396230462296

$$$$
