4F8U_SIS_A_101
  1228              3D

 68 70  0  0  0  0  0  0  0  0999 V2000
   -1.3466    0.1373   -0.1846 C   0  0  0  0  0  0  0  0  0  0  0  0
   -0.8674   -0.4539    0.5985 H   0  0  0  0  0  0  0  0  0  0  0  0
   -2.7947   -0.3641   -0.3649 C   0  0  0  0  0  0  0  0  0  0  0  0
   -2.7883   -1.4203   -0.6538 H   0  0  0  0  0  0  0  0  0  0  0  0
   -3.5598   -0.1910    0.9541 C   0  0  0  0  0  0  0  0  0  0  0  0
   -3.2773    1.1705    1.5658 C   0  0  0  0  0  0  0  0  0  0  0  0
   -2.0202    1.6428    1.4501 C   0  0  0  0  0  0  0  0  0  0  0  0
   -1.4755    2.7116    2.3600 C   0  0  0  0  0  0  0  0  0  0  0  0
   -0.9434    3.8839    1.6739 N   0  0  0  0  0  0  0  0  0  0  0  0
   -1.3765    1.5222    0.2050 O   0  0  0  0  0  0  0  0  0  0  0  0
   -3.4860    0.3709   -1.4373 N   0  0  0  0  0  0  0  0  0  0  0  0
   -0.6548   -0.1247   -1.4006 O   0  0  0  0  0  0  0  0  0  0  0  0
    0.7065    0.2939   -1.5704 C   0  0  0  0  0  0  0  0  0  0  0  0
    0.6362    1.2420   -2.1197 H   0  0  0  0  0  0  0  0  0  0  0  0
    1.3085   -0.7942   -2.4917 C   0  0  0  0  0  0  0  0  0  0  0  0
    0.8100   -1.7547   -2.2970 H   0  0  0  0  0  0  0  0  0  0  0  0
    2.8089   -0.9880   -2.2815 C   0  0  0  0  0  0  0  0  0  0  0  0
    3.0829   -1.4816   -0.8556 C   0  0  0  0  0  0  0  0  0  0  0  0
    2.7378   -2.5224   -0.7997 H   0  0  0  0  0  0  0  0  0  0  0  0
    2.3502   -0.6581    0.2415 C   0  0  0  0  0  0  0  0  0  0  0  0
    3.0870   -0.2573    0.9490 H   0  0  0  0  0  0  0  0  0  0  0  0
    1.5565    0.5428   -0.3068 C   0  0  0  0  0  0  0  0  0  0  0  0
    0.9565    0.9712    0.4926 H   0  0  0  0  0  0  0  0  0  0  0  0
    2.5356    1.5471   -0.6561 O   0  0  0  0  0  0  0  0  0  0  0  0
    1.4881   -1.5717    0.9465 O   0  0  0  0  0  0  0  0  0  0  0  0
    1.2700   -1.2386    2.3171 C   0  0  0  0  0  0  0  0  0  0  0  0
    1.2627   -0.1474    2.4288 H   0  0  0  0  0  0  0  0  0  0  0  0
    2.3116   -1.8044    3.3108 C   0  0  0  0  0  0  0  0  0  0  0  0
    2.2836   -1.1437    4.1871 H   0  0  0  0  0  0  0  0  0  0  0  0
    2.0173   -3.2544    3.7842 C   0  0  0  0  0  0  0  0  0  0  0  0
    2.9494   -3.8488    3.7742 H   0  0  0  0  0  0  0  0  0  0  0  0
    0.9891   -3.9591    2.8739 C   0  0  0  0  0  0  0  0  0  0  0  0
   -0.2545   -3.0820    2.6249 C   0  0  0  0  0  0  0  0  0  0  0  0
   -0.0168   -1.6794    2.7710 O   0  0  0  0  0  0  0  0  0  0  0  0
    1.6248   -4.4577    1.5609 C   0  0  0  0  0  0  0  0  0  0  0  0
    0.5251   -5.1745    3.5052 O   0  0  0  0  0  0  0  0  0  0  0  0
    1.4967   -3.2243    5.1684 N   0  0  0  0  0  0  0  0  0  0  0  0
    2.5622   -3.2449    6.1642 C   0  0  0  0  0  0  0  0  0  0  0  0
    3.6389   -1.7067    2.8187 O   0  0  0  0  0  0  0  0  0  0  0  0
    4.5324   -1.5003   -0.6485 N   0  0  0  0  0  0  0  0  0  0  0  0
    1.0474   -0.4480   -3.8951 N   0  0  0  0  0  0  0  0  0  0  0  0
   -4.6388   -0.3192    0.8093 H   0  0  0  0  0  0  0  0  0  0  0  0
   -3.2346   -0.9600    1.6646 H   0  0  0  0  0  0  0  0  0  0  0  0
   -3.9095    1.4658    2.3930 H   0  0  0  0  0  0  0  0  0  0  0  0
   -0.6858    2.2645    2.9731 H   0  0  0  0  0  0  0  0  0  0  0  0
   -2.2488    3.0527    3.0542 H   0  0  0  0  0  0  0  0  0  0  0  0
   -0.7049    3.6518    0.7111 H   0  0  0  0  0  0  0  0  0  0  0  0
   -0.0695    4.1625    2.1154 H   0  0  0  0  0  0  0  0  0  0  0  0
   -2.9900    0.2307   -2.3145 H   0  0  0  0  0  0  0  0  0  0  0  0
   -3.4446    1.3704   -1.2491 H   0  0  0  0  0  0  0  0  0  0  0  0
    3.3633   -0.0639   -2.4851 H   0  0  0  0  0  0  0  0  0  0  0  0
    3.1978   -1.7332   -2.9939 H   0  0  0  0  0  0  0  0  0  0  0  0
    2.5207    2.2216    0.0448 H   0  0  0  0  0  0  0  0  0  0  0  0
   -1.0525   -3.3347    3.3326 H   0  0  0  0  0  0  0  0  0  0  0  0
   -0.6811   -3.2387    1.6260 H   0  0  0  0  0  0  0  0  0  0  0  0
    1.9682   -5.4983    1.6546 H   0  0  0  0  0  0  0  0  0  0  0  0
    2.5068   -3.8778    1.2801 H   0  0  0  0  0  0  0  0  0  0  0  0
    0.9257   -4.4296    0.7209 H   0  0  0  0  0  0  0  0  0  0  0  0
    0.3940   -4.9840    4.4498 H   0  0  0  0  0  0  0  0  0  0  0  0
    0.9035   -2.4098    5.3100 H   0  0  0  0  0  0  0  0  0  0  0  0
    3.0898   -4.2036    6.1514 H   0  0  0  0  0  0  0  0  0  0  0  0
    2.1348   -3.1113    7.1609 H   0  0  0  0  0  0  0  0  0  0  0  0
    3.2880   -2.4394    6.0016 H   0  0  0  0  0  0  0  0  0  0  0  0
    3.7425   -2.3362    2.0875 H   0  0  0  0  0  0  0  0  0  0  0  0
    4.7894   -2.3156   -0.0908 H   0  0  0  0  0  0  0  0  0  0  0  0
    4.8347   -0.6798   -0.1247 H   0  0  0  0  0  0  0  0  0  0  0  0
    1.8970   -0.1259   -4.3520 H   0  0  0  0  0  0  0  0  0  0  0  0
    0.7529   -1.2817   -4.3987 H   0  0  0  0  0  0  0  0  0  0  0  0
  1  2  1  0  0  0  0
  3  1  1  0  0  0  0
  3  4  1  0  0  0  0
  5  3  1  0  0  0  0
  6  5  1  0  0  0  0
  7  6  2  0  0  0  0
  8  7  1  0  0  0  0
  9  8  1  0  0  0  0
 10  7  1  0  0  0  0
 10  1  1  0  0  0  0
 11  3  1  0  0  0  0
 12  1  1  0  0  0  0
 13 12  1  0  0  0  0
 13 14  1  0  0  0  0
 15 13  1  0  0  0  0
 15 16  1  0  0  0  0
 17 15  1  0  0  0  0
 18 17  1  0  0  0  0
 18 19  1  0  0  0  0
 20 18  1  0  0  0  0
 20 21  1  0  0  0  0
 22 20  1  0  0  0  0
 22 23  1  0  0  0  0
 22 13  1  0  0  0  0
 24 22  1  0  0  0  0
 25 20  1  0  0  0  0
 26 25  1  0  0  0  0
 26 27  1  0  0  0  0
 28 26  1  0  0  0  0
 28 29  1  0  0  0  0
 30 28  1  0  0  0  0
 30 31  1  0  0  0  0
 32 30  1  0  0  0  0
 33 32  1  0  0  0  0
 34 33  1  0  0  0  0
 34 26  1  0  0  0  0
 35 32  1  0  0  0  0
 36 32  1  0  0  0  0
 37 30  1  0  0  0  0
 38 37  1  0  0  0  0
 39 28  1  0  0  0  0
 40 18  1  0  0  0  0
 41 15  1  0  0  0  0
  5 42  1  0  0  0  0
  5 43  1  0  0  0  0
  6 44  1  0  0  0  0
  8 45  1  0  0  0  0
  8 46  1  0  0  0  0
  9 47  1  0  0  0  0
  9 48  1  0  0  0  0
 11 49  1  0  0  0  0
 11 50  1  0  0  0  0
 17 51  1  0  0  0  0
 17 52  1  0  0  0  0
 24 53  1  0  0  0  0
 33 54  1  0  0  0  0
 33 55  1  0  0  0  0
 35 56  1  0  0  0  0
 35 57  1  0  0  0  0
 35 58  1  0  0  0  0
 36 59  1  0  0  0  0
 37 60  1  0  0  0  0
 38 61  1  0  0  0  0
 38 62  1  0  0  0  0
 38 63  1  0  0  0  0
 39 64  1  0  0  0  0
 40 65  1  0  0  0  0
 40 66  1  0  0  0  0
 41 67  1  0  0  0  0
 41 68  1  0  0  0  0
M  END
>  <energy>
120.14030634090129

$$$$
