3Q3Z_C2E_V_1
  1228              3D

 70 76  0  0  0  0  0  0  0  0999 V2000
   -3.0724    4.3696   -0.9064 P   0  0  0  0  0  0  0  0  0  0  0  0
   -1.8747    4.4280   -0.0029 O   0  0  0  0  0  0  0  0  0  0  0  0
   -2.7678    4.6359   -2.4700 O   0  0  0  0  0  0  0  0  0  0  0  0
   -4.2211    5.4550   -0.5813 O   0  0  0  0  0  0  0  0  0  0  0  0
   -4.7723    5.5151    0.7314 C   0  0  0  0  0  0  0  0  0  0  0  0
   -6.1289    6.2040    0.6706 C   0  0  0  0  0  0  0  0  0  0  0  0
   -6.3110    6.7039    1.6277 H   0  0  0  0  0  0  0  0  0  0  0  0
   -6.0933    7.2464   -0.3214 O   0  0  0  0  0  0  0  0  0  0  0  0
   -7.1977    7.0558   -1.2243 C   0  0  0  0  0  0  0  0  0  0  0  0
   -6.8460    6.4610   -2.0764 H   0  0  0  0  0  0  0  0  0  0  0  0
   -8.2256    6.2895   -0.4030 C   0  0  0  0  0  0  0  0  0  0  0  0
   -8.7687    6.9483    0.2875 H   0  0  0  0  0  0  0  0  0  0  0  0
   -7.3462    5.3226    0.3768 C   0  0  0  0  0  0  0  0  0  0  0  0
   -7.8189    4.9938    1.3064 H   0  0  0  0  0  0  0  0  0  0  0  0
   -6.9859    4.1856   -0.4001 O   0  0  0  0  0  0  0  0  0  0  0  0
   -7.9035    2.8477   -0.3546 P   0  0  0  0  0  0  0  0  0  0  0  0
   -9.1654    2.8883   -1.1672 O   0  0  0  0  0  0  0  0  0  0  0  0
   -8.1447    2.5671    1.2209 O   0  0  0  0  0  0  0  0  0  0  0  0
   -6.8968    1.6556   -0.7617 O   0  0  0  0  0  0  0  0  0  0  0  0
   -6.1439    1.7023   -1.9582 C   0  0  0  0  0  0  0  0  0  0  0  0
   -4.8124    0.9721   -1.7649 C   0  0  0  0  0  0  0  0  0  0  0  0
   -4.6763    0.2611   -2.5881 H   0  0  0  0  0  0  0  0  0  0  0  0
   -4.7778    0.1929   -0.5411 O   0  0  0  0  0  0  0  0  0  0  0  0
   -3.4853    0.3728    0.1108 C   0  0  0  0  0  0  0  0  0  0  0  0
   -3.1111   -0.6034    0.4304 H   0  0  0  0  0  0  0  0  0  0  0  0
   -2.6212    0.9665   -1.0096 C   0  0  0  0  0  0  0  0  0  0  0  0
   -2.3429    0.1544   -1.6949 H   0  0  0  0  0  0  0  0  0  0  0  0
   -3.5951    1.8841   -1.7063 C   0  0  0  0  0  0  0  0  0  0  0  0
   -3.2582    2.2014   -2.6977 H   0  0  0  0  0  0  0  0  0  0  0  0
   -3.9082    2.9950   -0.8842 O   0  0  0  0  0  0  0  0  0  0  0  0
   -1.4432    1.6304   -0.6335 O   0  0  0  0  0  0  0  0  0  0  0  0
   -3.6757    1.1578    1.3290 N   0  0  0  0  0  0  0  0  0  0  0  0
   -4.8859    1.4967    1.8972 C   0  0  0  0  0  0  0  0  0  0  0  0
   -4.7582    2.3850    2.8613 N   0  0  0  0  0  0  0  0  0  0  0  0
   -3.4189    2.4093    3.1034 C   0  0  0  0  0  0  0  0  0  0  0  0
   -2.7175    3.3966    3.8865 C   0  0  0  0  0  0  0  0  0  0  0  0
   -3.2641    4.1139    4.7158 O   0  0  0  0  0  0  0  0  0  0  0  0
   -1.3416    3.3513    3.6380 N   0  0  0  0  0  0  0  0  0  0  0  0
   -0.7498    3.9746    4.1796 H   0  0  0  0  0  0  0  0  0  0  0  0
   -0.7049    2.3841    2.8308 C   0  0  0  0  0  0  0  0  0  0  0  0
    0.6744    2.3857    2.8828 N   0  0  0  0  0  0  0  0  0  0  0  0
   -1.3758    1.5713    2.0457 N   0  0  0  0  0  0  0  0  0  0  0  0
   -2.7194    1.7415    2.1202 C   0  0  0  0  0  0  0  0  0  0  0  0
   -9.1579    5.6310   -1.2361 O   0  0  0  0  0  0  0  0  0  0  0  0
   -7.5599    8.3500   -1.7632 N   0  0  0  0  0  0  0  0  0  0  0  0
   -6.6451    9.2221   -2.3228 C   0  0  0  0  0  0  0  0  0  0  0  0
   -7.2346   10.2062   -2.9716 N   0  0  0  0  0  0  0  0  0  0  0  0
   -8.5401   10.0955   -2.5896 C   0  0  0  0  0  0  0  0  0  0  0  0
   -9.6368   10.8557   -3.1384 C   0  0  0  0  0  0  0  0  0  0  0  0
   -9.5164   12.0082   -3.5350 O   0  0  0  0  0  0  0  0  0  0  0  0
  -10.8483   10.1640   -3.0215 N   0  0  0  0  0  0  0  0  0  0  0  0
  -11.6892   10.6475   -3.3231 H   0  0  0  0  0  0  0  0  0  0  0  0
  -11.0104    8.9452   -2.3267 C   0  0  0  0  0  0  0  0  0  0  0  0
  -12.3093    8.5074   -2.1666 N   0  0  0  0  0  0  0  0  0  0  0  0
   -9.9913    8.2403   -1.8943 N   0  0  0  0  0  0  0  0  0  0  0  0
   -8.7938    8.8138   -2.1441 C   0  0  0  0  0  0  0  0  0  0  0  0
   -2.0332    5.2363   -2.7149 H   0  0  0  0  0  0  0  0  0  0  0  0
   -4.8467    4.5124    1.1579 H   0  0  0  0  0  0  0  0  0  0  0  0
   -4.0823    6.1049    1.3426 H   0  0  0  0  0  0  0  0  0  0  0  0
   -8.2330    1.6406    1.5313 H   0  0  0  0  0  0  0  0  0  0  0  0
   -6.7268    1.2276   -2.7554 H   0  0  0  0  0  0  0  0  0  0  0  0
   -5.9852    2.7381   -2.2755 H   0  0  0  0  0  0  0  0  0  0  0  0
   -0.8304    0.9635   -0.2826 H   0  0  0  0  0  0  0  0  0  0  0  0
   -5.8304    1.1462    1.5120 H   0  0  0  0  0  0  0  0  0  0  0  0
    1.0529    2.1036    3.7855 H   0  0  0  0  0  0  0  0  0  0  0  0
    1.1187    1.8248    2.1573 H   0  0  0  0  0  0  0  0  0  0  0  0
   -8.6544    5.0989   -1.8765 H   0  0  0  0  0  0  0  0  0  0  0  0
   -5.5827    9.0197   -2.3204 H   0  0  0  0  0  0  0  0  0  0  0  0
  -12.6320    8.5619   -1.2013 H   0  0  0  0  0  0  0  0  0  0  0  0
  -12.4611    7.5531   -2.4927 H   0  0  0  0  0  0  0  0  0  0  0  0
  1  4  1  0  0  0  0
  1 30  1  0  0  0  0
  1  3  1  0  0  0  0
  1  2  2  0  0  0  0
  3 57  1  0  0  0  0
  4  5  1  0  0  0  0
  5  6  1  0  0  0  0
  5 58  1  0  0  0  0
  5 59  1  0  0  0  0
  6  8  1  0  0  0  0
  6 13  1  0  0  0  0
  6  7  1  0  0  0  0
  8  9  1  0  0  0  0
  9 11  1  0  0  0  0
  9 10  1  0  0  0  0
  9 45  1  0  0  0  0
 11 13  1  0  0  0  0
 11 12  1  0  0  0  0
 11 44  1  0  0  0  0
 13 15  1  0  0  0  0
 13 14  1  0  0  0  0
 16 15  1  0  0  0  0
 16 19  1  0  0  0  0
 16 17  2  0  0  0  0
 16 18  1  0  0  0  0
 18 60  1  0  0  0  0
 19 20  1  0  0  0  0
 20 21  1  0  0  0  0
 20 61  1  0  0  0  0
 20 62  1  0  0  0  0
 21 23  1  0  0  0  0
 21 28  1  0  0  0  0
 21 22  1  0  0  0  0
 23 24  1  0  0  0  0
 24 26  1  0  0  0  0
 24 25  1  0  0  0  0
 24 32  1  0  0  0  0
 26 28  1  0  0  0  0
 26 31  1  0  0  0  0
 26 27  1  0  0  0  0
 28 30  1  0  0  0  0
 28 29  1  0  0  0  0
 31 63  1  0  0  0  0
 32 33  1  0  0  0  0
 32 43  1  0  0  0  0
 33 34  2  0  0  0  0
 33 64  1  0  0  0  0
 34 35  1  0  0  0  0
 35 36  1  0  0  0  0
 35 43  2  0  0  0  0
 36 37  2  0  0  0  0
 36 38  1  0  0  0  0
 38 39  1  0  0  0  0
 38 40  1  0  0  0  0
 40 41  1  0  0  0  0
 40 42  2  0  0  0  0
 41 65  1  0  0  0  0
 41 66  1  0  0  0  0
 42 43  1  0  0  0  0
 44 67  1  0  0  0  0
 45 46  1  0  0  0  0
 45 56  1  0  0  0  0
 46 47  2  0  0  0  0
 46 68  1  0  0  0  0
 47 48  1  0  0  0  0
 48 49  1  0  0  0  0
 48 56  2  0  0  0  0
 49 50  2  0  0  0  0
 49 51  1  0  0  0  0
 51 52  1  0  0  0  0
 51 53  1  0  0  0  0
 53 54  1  0  0  0  0
 53 55  2  0  0  0  0
 54 69  1  0  0  0  0
 54 70  1  0  0  0  0
 55 56  1  0  0  0  0
M  END
>  <energy>
132.09375039532623

$$$$
