2GDI_TPP_X_100
  1228              3D

 45 46  0  0  0  0  0  0  0  0999 V2000
   -3.2744    2.2560   -1.4014 N   0  0  0  0  0  0  0  0  0  0  0  0
   -2.3204    2.9489   -0.7509 C   0  0  0  0  0  0  0  0  0  0  0  0
   -1.8206    4.2080   -1.3794 C   0  0  0  0  0  0  0  0  0  0  0  0
   -1.8036    2.6193    0.4516 N   0  0  0  0  0  0  0  0  0  0  0  0
   -2.0946    1.3868    0.9292 C   0  0  0  0  0  0  0  0  0  0  0  0
   -1.4993    0.9811    2.1440 N   0  0  0  0  0  0  0  0  0  0  0  0
   -2.9550    0.5235    0.2474 C   0  0  0  0  0  0  0  0  0  0  0  0
   -3.6077    1.0752   -0.8458 C   0  0  0  0  0  0  0  0  0  0  0  0
   -3.1882   -0.8966    0.6604 C   0  0  0  0  0  0  0  0  0  0  0  0
   -3.0586   -1.8839   -0.4311 N   0  3  0  0  0  0  0  0  0  0  0  0
   -3.9325   -2.8778   -0.4728 C   0  0  0  0  0  0  0  0  0  0  0  0
   -3.5420   -4.0289   -1.6652 S   0  0  0  0  0  0  0  0  0  0  0  0
   -2.1452   -3.1484   -2.1310 C   0  0  0  0  0  0  0  0  0  0  0  0
   -2.0105   -2.0153   -1.3440 C   0  0  0  0  0  0  0  0  0  0  0  0
   -1.0276   -0.9247   -1.5732 C   0  0  0  0  0  0  0  0  0  0  0  0
   -1.1028   -3.8023   -2.9937 C   0  0  0  0  0  0  0  0  0  0  0  0
   -0.0074   -4.4645   -2.1525 C   0  0  0  0  0  0  0  0  0  0  0  0
    1.1643   -3.6584   -2.1918 O   0  0  0  0  0  0  0  0  0  0  0  0
    2.4825   -4.1871   -2.9649 P   0  0  0  0  0  0  0  0  0  0  0  0
    3.2923   -5.2106   -2.2245 O   0  0  0  0  0  0  0  0  0  0  0  0
    3.2689   -2.8138   -3.3007 O   0  0  0  0  0  0  0  0  0  0  0  0
    1.9368   -4.6550   -4.4124 O   0  0  0  0  0  0  0  0  0  0  0  0
    2.7204   -5.0144   -5.7780 P   0  0  0  0  0  0  0  0  0  0  0  0
    3.8402   -4.0839   -6.1392 O   0  0  0  0  0  0  0  0  0  0  0  0
    3.1527   -6.5579   -5.5680 O   0  0  0  0  0  0  0  0  0  0  0  0
    1.5312   -5.1078   -6.8692 O   0  0  0  0  0  0  0  0  0  0  0  0
   -2.3473    4.4192   -2.3146 H   0  0  0  0  0  0  0  0  0  0  0  0
   -0.7530    4.1080   -1.6005 H   0  0  0  0  0  0  0  0  0  0  0  0
   -1.9625    5.0510   -0.6977 H   0  0  0  0  0  0  0  0  0  0  0  0
   -0.7997    0.2598    1.9835 H   0  0  0  0  0  0  0  0  0  0  0  0
   -1.0619    1.7778    2.6023 H   0  0  0  0  0  0  0  0  0  0  0  0
   -4.3569    0.5117   -1.3942 H   0  0  0  0  0  0  0  0  0  0  0  0
   -4.2033   -0.9479    1.0783 H   0  0  0  0  0  0  0  0  0  0  0  0
   -2.5066   -1.2227    1.4541 H   0  0  0  0  0  0  0  0  0  0  0  0
   -4.7731   -2.9772    0.2005 H   0  0  0  0  0  0  0  0  0  0  0  0
   -0.3170   -1.1905   -2.3627 H   0  0  0  0  0  0  0  0  0  0  0  0
   -1.5087   -0.0144   -1.9341 H   0  0  0  0  0  0  0  0  0  0  0  0
   -0.4452   -0.7152   -0.6737 H   0  0  0  0  0  0  0  0  0  0  0  0
   -0.6712   -3.0515   -3.6670 H   0  0  0  0  0  0  0  0  0  0  0  0
   -1.5633   -4.5523   -3.6474 H   0  0  0  0  0  0  0  0  0  0  0  0
    0.2099   -5.4694   -2.5304 H   0  0  0  0  0  0  0  0  0  0  0  0
   -0.2931   -4.5757   -1.1005 H   0  0  0  0  0  0  0  0  0  0  0  0
    4.0137   -2.5382   -2.7257 H   0  0  0  0  0  0  0  0  0  0  0  0
    2.6320   -7.1217   -4.9575 H   0  0  0  0  0  0  0  0  0  0  0  0
    1.4442   -4.3944   -7.5368 H   0  0  0  0  0  0  0  0  0  0  0  0
  2  1  2  0  0  0  0
  3  2  1  0  0  0  0
  4  2  1  0  0  0  0
  5  4  2  0  0  0  0
  6  5  1  0  0  0  0
  7  5  1  0  0  0  0
  8  7  2  0  0  0  0
  8  1  1  0  0  0  0
  9  7  1  0  0  0  0
 10  9  1  0  0  0  0
 11 10  2  0  0  0  0
 12 11  1  0  0  0  0
 13 12  1  0  0  0  0
 14 13  2  0  0  0  0
 14 10  1  0  0  0  0
 15 14  1  0  0  0  0
 16 13  1  0  0  0  0
 17 16  1  0  0  0  0
 18 17  1  0  0  0  0
 19 18  1  0  0  0  0
 20 19  2  0  0  0  0
 21 19  1  0  0  0  0
 22 19  1  0  0  0  0
 23 22  1  0  0  0  0
 24 23  2  0  0  0  0
 25 23  1  0  0  0  0
 26 23  1  0  0  0  0
  3 27  1  0  0  0  0
  3 28  1  0  0  0  0
  3 29  1  0  0  0  0
  6 30  1  0  0  0  0
  6 31  1  0  0  0  0
  8 32  1  0  0  0  0
  9 33  1  0  0  0  0
  9 34  1  0  0  0  0
 11 35  1  0  0  0  0
 15 36  1  0  0  0  0
 15 37  1  0  0  0  0
 15 38  1  0  0  0  0
 16 39  1  0  0  0  0
 16 40  1  0  0  0  0
 17 41  1  0  0  0  0
 17 42  1  0  0  0  0
 21 43  1  0  0  0  0
 25 44  1  0  0  0  0
 26 45  1  0  0  0  0
M  CHG  1  10   1
M  END
>  <energy>
19.935261449001327

$$$$
