2EES_HPA_A_90
  1228              3D

 14 15  0  0  0  0  0  0  0  0999 V2000
   -1.7568    0.8751    0.1437 N   0  0  0  0  0  0  0  0  0  0  0  0
   -2.4680    1.5893    0.1742 H   0  0  0  0  0  0  0  0  0  0  0  0
   -2.0676   -0.4627    0.3038 C   0  0  0  0  0  0  0  0  0  0  0  0
   -1.2400   -1.4611    0.2654 N   0  0  0  0  0  0  0  0  0  0  0  0
    0.0923   -1.0707    0.0850 C   0  0  0  0  0  0  0  0  0  0  0  0
    0.4383    0.2397   -0.0829 C   0  0  0  0  0  0  0  0  0  0  0  0
   -0.4747    1.3148   -0.0591 C   0  0  0  0  0  0  0  0  0  0  0  0
   -0.1709    2.4926   -0.1984 O   0  0  0  0  0  0  0  0  0  0  0  0
    1.7853    0.2563   -0.2603 N   0  0  0  0  0  0  0  0  0  0  0  0
    2.3548    1.0862   -0.3581 H   0  0  0  0  0  0  0  0  0  0  0  0
    2.2099   -1.0415   -0.1623 C   0  0  0  0  0  0  0  0  0  0  0  0
    1.1961   -1.8722   -0.0042 N   0  0  0  0  0  0  0  0  0  0  0  0
   -3.1486   -0.6323    0.4532 H   0  0  0  0  0  0  0  0  0  0  0  0
    3.2498   -1.3135   -0.3001 H   0  0  0  0  0  0  0  0  0  0  0  0
  1  2  1  0  0  0  0
  3  1  1  0  0  0  0
  4  3  2  0  0  0  0
  5  4  1  0  0  0  0
  6  5  2  0  0  0  0
  7  6  1  0  0  0  0
  7  1  1  0  0  0  0
  8  7  2  0  0  0  0
  9  6  1  0  0  0  0
  9 10  1  0  0  0  0
 11  9  1  0  0  0  0
 12 11  2  0  0  0  0
 12  5  1  0  0  0  0
  3 13  1  0  0  0  0
 11 14  1  0  0  0  0
M  END
>  <energy>
-101.06338679750247

$$$$
