2W89_GOL_B_1973
  1228              3D

 14 13  0  0  0  0  0  0  0  0999 V2000
   -1.3060   -0.0021    0.1746 C   0  0  0  0  0  0  0  0  0  0  0  0
   -1.2735    1.3270    0.6823 O   0  0  0  0  0  0  0  0  0  0  0  0
    0.0092   -0.3000   -0.5365 C   0  0  0  0  0  0  0  0  0  0  0  0
    0.1346    0.5635   -1.6636 O   0  0  0  0  0  0  0  0  0  0  0  0
    0.0453   -1.7394   -1.0347 C   0  0  0  0  0  0  0  0  0  0  0  0
    1.3334   -2.0313   -1.5642 O   0  0  0  0  0  0  0  0  0  0  0  0
   -1.4488   -0.6764    1.0259 H   0  0  0  0  0  0  0  0  0  0  0  0
   -2.1631   -0.1042   -0.5028 H   0  0  0  0  0  0  0  0  0  0  0  0
   -1.8033    1.8820    0.0851 H   0  0  0  0  0  0  0  0  0  0  0  0
    0.8567   -0.1123    0.1337 H   0  0  0  0  0  0  0  0  0  0  0  0
    0.0905    1.4788   -1.3382 H   0  0  0  0  0  0  0  0  0  0  0  0
   -0.7032   -1.9179   -1.8153 H   0  0  0  0  0  0  0  0  0  0  0  0
   -0.1400   -2.4406   -0.2155 H   0  0  0  0  0  0  0  0  0  0  0  0
    1.4031   -1.5725   -2.4189 H   0  0  0  0  0  0  0  0  0  0  0  0
  2  1  1  0  0  0  0
  3  1  1  0  0  0  0
  4  3  1  0  0  0  0
  5  3  1  0  0  0  0
  6  5  1  0  0  0  0
  1  7  1  0  0  0  0
  1  8  1  0  0  0  0
  2  9  1  0  0  0  0
  3 10  1  0  0  0  0
  4 11  1  0  0  0  0
  5 12  1  0  0  0  0
  5 13  1  0  0  0  0
  6 14  1  0  0  0  0
M  END
>  <energy>
8.5832438769420758

$$$$
