1F27_BTN_A_33
  1228              3D

 32 33  0  0  0  0  0  0  0  0999 V2000
   -2.8473   -0.9876    3.3630 C   0  0  0  0  0  0  0  0  0  0  0  0
   -3.9601   -1.3506    3.7295 O   0  0  0  0  0  0  0  0  0  0  0  0
   -1.8724   -1.8512    2.9994 O   0  0  0  0  0  0  0  0  0  0  0  0
   -2.4686    0.4628    3.1809 C   0  0  0  0  0  0  0  0  0  0  0  0
   -0.9786    0.8043    3.2681 C   0  0  0  0  0  0  0  0  0  0  0  0
   -0.5307    1.7204    2.1198 C   0  0  0  0  0  0  0  0  0  0  0  0
   -0.0961    0.9810    0.8423 C   0  0  0  0  0  0  0  0  0  0  0  0
    1.0478   -0.0270    0.9981 C   0  0  0  0  0  0  0  0  0  0  0  0
    0.6513   -0.9336    1.4726 H   0  0  0  0  0  0  0  0  0  0  0  0
    2.4547    0.5339    2.0061 S   0  0  0  0  0  0  0  0  0  0  0  0
    3.5461   -0.7878    1.4323 C   0  0  0  0  0  0  0  0  0  0  0  0
    3.0524   -1.1709    0.0358 C   0  0  0  0  0  0  0  0  0  0  0  0
    2.9643   -2.2570   -0.0613 H   0  0  0  0  0  0  0  0  0  0  0  0
    3.9634   -0.7023   -0.9813 N   0  0  0  0  0  0  0  0  0  0  0  0
    3.4268    0.3710   -1.7031 C   0  0  0  0  0  0  0  0  0  0  0  0
    4.0296    1.0790   -2.5003 O   0  0  0  0  0  0  0  0  0  0  0  0
    2.1492    0.6434   -1.1693 N   0  0  0  0  0  0  0  0  0  0  0  0
    1.7354   -0.4519   -0.3009 C   0  0  0  0  0  0  0  0  0  0  0  0
    1.0790   -1.0883   -0.9094 H   0  0  0  0  0  0  0  0  0  0  0  0
   -1.9555   -2.7123    3.4628 H   0  0  0  0  0  0  0  0  0  0  0  0
   -2.9012    0.7807    2.2250 H   0  0  0  0  0  0  0  0  0  0  0  0
   -2.9935    1.0244    3.9634 H   0  0  0  0  0  0  0  0  0  0  0  0
   -0.3452   -0.0823    3.3294 H   0  0  0  0  0  0  0  0  0  0  0  0
   -0.8023    1.3374    4.2131 H   0  0  0  0  0  0  0  0  0  0  0  0
   -1.3379    2.4161    1.8614 H   0  0  0  0  0  0  0  0  0  0  0  0
    0.2867    2.3668    2.4692 H   0  0  0  0  0  0  0  0  0  0  0  0
    0.1562    1.7408    0.0939 H   0  0  0  0  0  0  0  0  0  0  0  0
   -0.9682    0.4469    0.4384 H   0  0  0  0  0  0  0  0  0  0  0  0
    3.4446   -1.6342    2.1182 H   0  0  0  0  0  0  0  0  0  0  0  0
    4.5858   -0.4489    1.4501 H   0  0  0  0  0  0  0  0  0  0  0  0
    4.9197   -1.0297   -1.0773 H   0  0  0  0  0  0  0  0  0  0  0  0
    1.4558    1.0526   -1.7904 H   0  0  0  0  0  0  0  0  0  0  0  0
  2  1  2  0  0  0  0
  3  1  1  0  0  0  0
  4  1  1  0  0  0  0
  5  4  1  0  0  0  0
  6  5  1  0  0  0  0
  7  6  1  0  0  0  0
  8  7  1  0  0  0  0
  8  9  1  0  0  0  0
 10  8  1  0  0  0  0
 11 10  1  0  0  0  0
 12 11  1  0  0  0  0
 12 13  1  0  0  0  0
 14 12  1  0  0  0  0
 15 14  1  0  0  0  0
 16 15  2  0  0  0  0
 17 15  1  0  0  0  0
 18 17  1  0  0  0  0
 18 19  1  0  0  0  0
 18  8  1  0  0  0  0
 18 12  1  0  0  0  0
  3 20  1  0  0  0  0
  4 21  1  0  0  0  0
  4 22  1  0  0  0  0
  5 23  1  0  0  0  0
  5 24  1  0  0  0  0
  6 25  1  0  0  0  0
  6 26  1  0  0  0  0
  7 27  1  0  0  0  0
  7 28  1  0  0  0  0
 11 29  1  0  0  0  0
 11 30  1  0  0  0  0
 14 31  1  0  0  0  0
 17 32  1  0  0  0  0
M  END
>  <energy>
43.430703914860402

$$$$
