2MIY_PRF_A_101
  1228              3D

 22 23  0  0  0  0  0  0  0  0999 V2000
    2.0911   -1.1958    0.0451 N   0  0  0  0  0  0  0  0  0  0  0  0
    2.6937   -2.0135    0.0759 H   0  0  0  0  0  0  0  0  0  0  0  0
    2.6994    0.0545   -0.1710 C   0  0  0  0  0  0  0  0  0  0  0  0
    2.0163    1.1699   -0.2702 N   0  0  0  0  0  0  0  0  0  0  0  0
    0.7056    1.0231    0.0461 C   0  0  0  0  0  0  0  0  0  0  0  0
   -0.0030   -0.1465    0.2434 C   0  0  0  0  0  0  0  0  0  0  0  0
    0.7300   -1.3950    0.2828 C   0  0  0  0  0  0  0  0  0  0  0  0
    0.2222   -2.4883    0.5041 O   0  0  0  0  0  0  0  0  0  0  0  0
   -1.3771    0.1924    0.3786 C   0  0  0  0  0  0  0  0  0  0  0  0
   -2.5451   -0.7074    0.5628 C   0  0  0  0  0  0  0  0  0  0  0  0
   -2.5628   -1.2299    1.9205 N   0  0  0  0  0  0  0  0  0  0  0  0
   -1.4428    1.5710    0.2758 C   0  0  0  0  0  0  0  0  0  0  0  0
   -0.1840    2.0596    0.0523 N   0  0  0  0  0  0  0  0  0  0  0  0
    0.0384    3.0272   -0.1332 H   0  0  0  0  0  0  0  0  0  0  0  0
    4.0650   -0.0026   -0.3396 N   0  0  0  0  0  0  0  0  0  0  0  0
   -3.4801   -0.1709    0.3786 H   0  0  0  0  0  0  0  0  0  0  0  0
   -2.5051   -1.5271   -0.1597 H   0  0  0  0  0  0  0  0  0  0  0  0
   -2.0275   -2.0960    1.9426 H   0  0  0  0  0  0  0  0  0  0  0  0
   -2.0899   -0.5858    2.5547 H   0  0  0  0  0  0  0  0  0  0  0  0
   -2.2951    2.2334    0.3068 H   0  0  0  0  0  0  0  0  0  0  0  0
    4.4780    0.8826   -0.6244 H   0  0  0  0  0  0  0  0  0  0  0  0
    4.5530   -0.3450    0.4868 H   0  0  0  0  0  0  0  0  0  0  0  0
  1  2  1  0  0  0  0
  3  1  1  0  0  0  0
  4  3  2  0  0  0  0
  5  4  1  0  0  0  0
  6  5  2  0  0  0  0
  7  6  1  0  0  0  0
  7  1  1  0  0  0  0
  8  7  2  0  0  0  0
  9  6  1  0  0  0  0
 10  9  1  0  0  0  0
 11 10  1  0  0  0  0
 12  9  2  0  0  0  0
 13 12  1  0  0  0  0
 13 14  1  0  0  0  0
 13  5  1  0  0  0  0
 15  3  1  0  0  0  0
 10 16  1  0  0  0  0
 10 17  1  0  0  0  0
 11 18  1  0  0  0  0
 11 19  1  0  0  0  0
 12 20  1  0  0  0  0
 15 21  1  0  0  0  0
 15 22  1  0  0  0  0
M  END
>  <energy>
26.627074321073572

$$$$
