5BXK_S81_B_301
  1228              3D

 47 48  0  0  0  0  0  0  0  0999 V2000
   -1.5748   -1.0850    0.1656 C   0  0  0  0  0  0  0  0  0  0  0  0
   -1.3038   -0.4598    1.0262 H   0  0  0  0  0  0  0  0  0  0  0  0
   -3.0959   -1.4035    0.3074 C   0  0  0  0  0  0  0  0  0  0  0  0
   -3.3438   -1.3859    1.3774 H   0  0  0  0  0  0  0  0  0  0  0  0
   -3.9533   -0.3475   -0.4088 C   0  0  0  0  0  0  0  0  0  0  0  0
   -5.0166   -0.6162   -0.3688 H   0  0  0  0  0  0  0  0  0  0  0  0
   -3.5130   -0.1181   -1.8561 C   0  0  0  0  0  0  0  0  0  0  0  0
   -3.6398    0.9350   -2.1236 H   0  0  0  0  0  0  0  0  0  0  0  0
   -2.0791   -0.5775   -2.1255 C   0  0  0  0  0  0  0  0  0  0  0  0
   -2.0578   -1.6596   -2.3094 H   0  0  0  0  0  0  0  0  0  0  0  0
   -1.4973    0.1532   -3.3421 C   0  0  0  0  0  0  0  0  0  0  0  0
   -0.4066   -0.5938   -3.9639 N   0  0  0  0  0  0  0  0  0  0  0  0
   -1.2791   -0.2690   -0.9820 O   0  0  0  0  0  0  0  0  0  0  0  0
   -4.3387   -0.8365   -2.6683 F   0  0  0  0  0  0  0  0  0  0  0  0
   -3.8117    0.8924    0.2988 O   0  0  0  0  0  0  0  0  0  0  0  0
   -3.4518   -2.7533   -0.1525 N   0  0  0  0  0  0  0  0  0  0  0  0
   -0.7867   -2.2817    0.1574 O   0  0  0  0  0  0  0  0  0  0  0  0
    0.2051   -2.4029    1.1986 C   0  0  0  0  0  0  0  0  0  0  0  0
    0.4248   -1.4271    1.6483 H   0  0  0  0  0  0  0  0  0  0  0  0
   -0.3683   -3.3563    2.2542 C   0  0  0  0  0  0  0  0  0  0  0  0
   -0.9029   -4.1789    1.7595 H   0  0  0  0  0  0  0  0  0  0  0  0
    0.6808   -3.9248    3.2062 C   0  0  0  0  0  0  0  0  0  0  0  0
    1.0730   -3.1364    3.8618 H   0  0  0  0  0  0  0  0  0  0  0  0
    1.8153   -4.6008    2.4340 C   0  0  0  0  0  0  0  0  0  0  0  0
    1.4144   -5.4260    1.8349 H   0  0  0  0  0  0  0  0  0  0  0  0
    2.4744   -3.5715    1.5121 C   0  0  0  0  0  0  0  0  0  0  0  0
    1.4711   -2.9591    0.5190 C   0  0  0  0  0  0  0  0  0  0  0  0
    1.1890   -3.7216   -0.2176 H   0  0  0  0  0  0  0  0  0  0  0  0
    2.1530   -1.8678   -0.1827 N   0  0  0  0  0  0  0  0  0  0  0  0
    2.7959   -5.1541    3.3705 N   0  0  0  0  0  0  0  0  0  0  0  0
    0.0400   -4.8751    4.0648 O   0  0  0  0  0  0  0  0  0  0  0  0
   -1.3190   -2.6308    3.0357 O   0  0  0  0  0  0  0  0  0  0  0  0
   -2.2708    0.3161   -4.1006 H   0  0  0  0  0  0  0  0  0  0  0  0
   -1.1220    1.1428   -3.0539 H   0  0  0  0  0  0  0  0  0  0  0  0
    0.2284   -0.9441   -3.2483 H   0  0  0  0  0  0  0  0  0  0  0  0
   -0.7836   -1.4105   -4.4425 H   0  0  0  0  0  0  0  0  0  0  0  0
   -4.3960    0.8459    1.0751 H   0  0  0  0  0  0  0  0  0  0  0  0
   -3.7812   -2.7278   -1.1147 H   0  0  0  0  0  0  0  0  0  0  0  0
   -2.6263   -3.3530   -0.1512 H   0  0  0  0  0  0  0  0  0  0  0  0
    2.9399   -2.7767    2.1103 H   0  0  0  0  0  0  0  0  0  0  0  0
    3.2975   -4.0519    0.9620 H   0  0  0  0  0  0  0  0  0  0  0  0
    2.9721   -2.2324   -0.6679 H   0  0  0  0  0  0  0  0  0  0  0  0
    1.5443   -1.4831   -0.9017 H   0  0  0  0  0  0  0  0  0  0  0  0
    3.4074   -5.8104    2.8843 H   0  0  0  0  0  0  0  0  0  0  0  0
    3.3925   -4.4146    3.7353 H   0  0  0  0  0  0  0  0  0  0  0  0
   -0.2352   -5.6305    3.5155 H   0  0  0  0  0  0  0  0  0  0  0  0
   -2.2053   -2.8302    2.6900 H   0  0  0  0  0  0  0  0  0  0  0  0
  1  2  1  0  0  0  0
  3  1  1  0  0  0  0
  3  4  1  0  0  0  0
  5  3  1  0  0  0  0
  5  6  1  0  0  0  0
  7  5  1  0  0  0  0
  7  8  1  0  0  0  0
  9  7  1  0  0  0  0
  9 10  1  0  0  0  0
 11  9  1  0  0  0  0
 12 11  1  0  0  0  0
 13  9  1  0  0  0  0
 13  1  1  0  0  0  0
 14  7  1  0  0  0  0
 15  5  1  0  0  0  0
 16  3  1  0  0  0  0
 17  1  1  0  0  0  0
 18 17  1  0  0  0  0
 18 19  1  0  0  0  0
 20 18  1  0  0  0  0
 20 21  1  0  0  0  0
 22 20  1  0  0  0  0
 22 23  1  0  0  0  0
 24 22  1  0  0  0  0
 24 25  1  0  0  0  0
 26 24  1  0  0  0  0
 27 26  1  0  0  0  0
 27 28  1  0  0  0  0
 27 18  1  0  0  0  0
 29 27  1  0  0  0  0
 30 24  1  0  0  0  0
 31 22  1  0  0  0  0
 32 20  1  0  0  0  0
 11 33  1  0  0  0  0
 11 34  1  0  0  0  0
 12 35  1  0  0  0  0
 12 36  1  0  0  0  0
 15 37  1  0  0  0  0
 16 38  1  0  0  0  0
 16 39  1  0  0  0  0
 26 40  1  0  0  0  0
 26 41  1  0  0  0  0
 29 42  1  0  0  0  0
 29 43  1  0  0  0  0
 30 44  1  0  0  0  0
 30 45  1  0  0  0  0
 31 46  1  0  0  0  0
 32 47  1  0  0  0  0
M  END
>  <energy>
53.481711862826174

$$$$
