3C44_PAR_A_24
  1228              3D

 87 90  0  0  0  0  0  0  0  0999 V2000
    4.1933   11.0811    1.4145 C   0  0  0  0  0  0  0  0  0  0  0  0
    3.5536   10.8714    2.2784 H   0  0  0  0  0  0  0  0  0  0  0  0
    3.2398   11.4982    0.4346 O   0  0  0  0  0  0  0  0  0  0  0  0
    3.1575   10.9788   -0.8899 C   0  0  0  0  0  0  0  0  0  0  0  0
    2.1116   11.1341   -1.1745 H   0  0  0  0  0  0  0  0  0  0  0  0
    3.3613    9.4620   -1.0971 C   0  0  0  0  0  0  0  0  0  0  0  0
    4.4049    9.1968   -0.9157 H   0  0  0  0  0  0  0  0  0  0  0  0
    3.0629    9.0829   -2.5520 C   0  0  0  0  0  0  0  0  0  0  0  0
    3.9567    9.8678   -3.5144 C   0  0  0  0  0  0  0  0  0  0  0  0
    5.0077    9.6028   -3.3402 H   0  0  0  0  0  0  0  0  0  0  0  0
    3.6299    9.4831   -4.8880 N   0  0  0  0  0  0  0  0  0  0  0  0
    3.7815   11.3795   -3.3307 C   0  0  0  0  0  0  0  0  0  0  0  0
    2.7898   11.7119   -3.6617 H   0  0  0  0  0  0  0  0  0  0  0  0
    4.0182   11.8065   -1.8728 C   0  0  0  0  0  0  0  0  0  0  0  0
    5.0657   11.5798   -1.6370 H   0  0  0  0  0  0  0  0  0  0  0  0
    3.9482   13.2354   -1.8200 O   0  0  0  0  0  0  0  0  0  0  0  0
    2.8255   13.9376   -1.3089 C   0  0  0  0  0  0  0  0  0  0  0  0
    3.1059   14.2949   -0.3074 H   0  0  0  0  0  0  0  0  0  0  0  0
    2.5047   15.1274   -2.2128 C   0  0  0  0  0  0  0  0  0  0  0  0
    2.5902   14.8271   -3.2684 H   0  0  0  0  0  0  0  0  0  0  0  0
    3.4225   16.1782   -1.9698 O   0  0  0  0  0  0  0  0  0  0  0  0
    1.0394   15.4766   -1.8824 C   0  0  0  0  0  0  0  0  0  0  0  0
    0.4592   15.4838   -2.8133 H   0  0  0  0  0  0  0  0  0  0  0  0
    0.9588   16.7928   -1.3264 O   0  0  0  0  0  0  0  0  0  0  0  0
   -0.1164   17.1146   -0.4427 C   0  0  0  0  0  0  0  0  0  0  0  0
   -0.5958   16.2159   -0.0568 H   0  0  0  0  0  0  0  0  0  0  0  0
   -1.2083   17.9881   -1.1163 C   0  0  0  0  0  0  0  0  0  0  0  0
   -2.1619   17.7963   -0.6007 H   0  0  0  0  0  0  0  0  0  0  0  0
   -1.4132   17.6313   -2.5167 N   0  0  0  0  0  0  0  0  0  0  0  0
   -0.8712   19.4779   -0.9507 C   0  0  0  0  0  0  0  0  0  0  0  0
    0.0806   19.7015   -1.4525 H   0  0  0  0  0  0  0  0  0  0  0  0
   -1.8587   20.2933   -1.5812 O   0  0  0  0  0  0  0  0  0  0  0  0
   -0.8026   19.8433    0.5328 C   0  0  0  0  0  0  0  0  0  0  0  0
   -1.7668   20.2355    0.8783 H   0  0  0  0  0  0  0  0  0  0  0  0
    0.1493   20.8951    0.6536 O   0  0  0  0  0  0  0  0  0  0  0  0
   -0.4363   18.6316    1.4073 C   0  0  0  0  0  0  0  0  0  0  0  0
   -1.3435   18.0425    1.6094 H   0  0  0  0  0  0  0  0  0  0  0  0
    0.4694   17.7799    0.6984 O   0  0  0  0  0  0  0  0  0  0  0  0
    0.1765   18.9928    2.7721 C   0  0  0  0  0  0  0  0  0  0  0  0
    1.5913   19.3451    2.6858 N   0  0  0  0  0  0  0  0  0  0  0  0
    0.6050   14.3049   -0.9898 C   0  0  0  0  0  0  0  0  0  0  0  0
    0.6650   14.5571    0.0771 H   0  0  0  0  0  0  0  0  0  0  0  0
    1.5726   13.2719   -1.2263 O   0  0  0  0  0  0  0  0  0  0  0  0
   -0.7590   13.7298   -1.3344 C   0  0  0  0  0  0  0  0  0  0  0  0
   -1.1916   12.9166   -0.2489 O   0  0  0  0  0  0  0  0  0  0  0  0
    4.7471   12.0607   -4.1424 O   0  0  0  0  0  0  0  0  0  0  0  0
    2.5041    8.6673   -0.2250 N   0  0  0  0  0  0  0  0  0  0  0  0
    5.0866   12.2625    1.8533 C   0  0  0  0  0  0  0  0  0  0  0  0
    4.4391   12.9654    2.3943 H   0  0  0  0  0  0  0  0  0  0  0  0
    5.6696   13.0190    0.7455 N   0  0  0  0  0  0  0  0  0  0  0  0
    6.1687   11.7616    2.8184 C   0  0  0  0  0  0  0  0  0  0  0  0
    6.8263   12.5838    3.1273 H   0  0  0  0  0  0  0  0  0  0  0  0
    5.5151   11.2477    3.9820 O   0  0  0  0  0  0  0  0  0  0  0  0
    6.9888   10.6150    2.2012 C   0  0  0  0  0  0  0  0  0  0  0  0
    7.2416    9.8876    2.9819 H   0  0  0  0  0  0  0  0  0  0  0  0
    8.2174   11.1606    1.7083 O   0  0  0  0  0  0  0  0  0  0  0  0
    6.2874    9.9283    1.0163 C   0  0  0  0  0  0  0  0  0  0  0  0
    6.4514   10.4759    0.0794 H   0  0  0  0  0  0  0  0  0  0  0  0
    4.8812    9.8457    1.2395 O   0  0  0  0  0  0  0  0  0  0  0  0
    6.7899    8.4922    0.8188 C   0  0  0  0  0  0  0  0  0  0  0  0
    7.9970    8.5178    0.0747 O   0  0  0  0  0  0  0  0  0  0  0  0
    2.0058    9.2768   -2.7762 H   0  0  0  0  0  0  0  0  0  0  0  0
    3.2158    8.0063   -2.6944 H   0  0  0  0  0  0  0  0  0  0  0  0
    2.6229    9.5270   -5.0353 H   0  0  0  0  0  0  0  0  0  0  0  0
    3.8941    8.5102   -5.0395 H   0  0  0  0  0  0  0  0  0  0  0  0
    3.0749   16.9645   -2.4210 H   0  0  0  0  0  0  0  0  0  0  0  0
   -2.1133   18.2586   -2.9152 H   0  0  0  0  0  0  0  0  0  0  0  0
   -1.8336   16.7057   -2.5629 H   0  0  0  0  0  0  0  0  0  0  0  0
   -2.7202   20.0696   -1.1844 H   0  0  0  0  0  0  0  0  0  0  0  0
   -0.3536   21.7106    0.8207 H   0  0  0  0  0  0  0  0  0  0  0  0
    0.0709   18.1215    3.4324 H   0  0  0  0  0  0  0  0  0  0  0  0
   -0.3781   19.8173    3.2464 H   0  0  0  0  0  0  0  0  0  0  0  0
    1.9995   19.2950    3.6170 H   0  0  0  0  0  0  0  0  0  0  0  0
    1.6793   20.3172    2.3889 H   0  0  0  0  0  0  0  0  0  0  0  0
   -1.4963   14.5219   -1.4976 H   0  0  0  0  0  0  0  0  0  0  0  0
   -0.7173   13.1040   -2.2324 H   0  0  0  0  0  0  0  0  0  0  0  0
   -2.1611   12.8677   -0.2948 H   0  0  0  0  0  0  0  0  0  0  0  0
    4.3894   12.0894   -5.0461 H   0  0  0  0  0  0  0  0  0  0  0  0
    1.5248    8.8264   -0.4532 H   0  0  0  0  0  0  0  0  0  0  0  0
    2.6186    8.9559    0.7439 H   0  0  0  0  0  0  0  0  0  0  0  0
    6.5468   12.5999    0.4404 H   0  0  0  0  0  0  0  0  0  0  0  0
    5.9026   13.9620    1.0513 H   0  0  0  0  0  0  0  0  0  0  0  0
    5.7091   11.8523    4.7168 H   0  0  0  0  0  0  0  0  0  0  0  0
    8.9417   10.6956    2.1626 H   0  0  0  0  0  0  0  0  0  0  0  0
    6.9794    7.9881    1.7693 H   0  0  0  0  0  0  0  0  0  0  0  0
    6.0588    7.8960    0.2661 H   0  0  0  0  0  0  0  0  0  0  0  0
    7.9994    7.7339   -0.5011 H   0  0  0  0  0  0  0  0  0  0  0  0
  1 48  1  0  0  0  0
  1 59  1  0  0  0  0
  1  3  1  0  0  0  0
  1  2  1  0  0  0  0
  4  6  1  0  0  0  0
  4  5  1  0  0  0  0
  4  3  1  0  0  0  0
  6  7  1  0  0  0  0
  6  8  1  0  0  0  0
  6 47  1  0  0  0  0
  8  9  1  0  0  0  0
  8 62  1  0  0  0  0
  8 63  1  0  0  0  0
  9 12  1  0  0  0  0
  9 11  1  0  0  0  0
  9 10  1  0  0  0  0
 11 64  1  0  0  0  0
 11 65  1  0  0  0  0
 12 13  1  0  0  0  0
 12 14  1  0  0  0  0
 12 46  1  0  0  0  0
 14  4  1  0  0  0  0
 14 16  1  0  0  0  0
 14 15  1  0  0  0  0
 16 17  1  0  0  0  0
 17 18  1  0  0  0  0
 17 19  1  0  0  0  0
 17 43  1  0  0  0  0
 19 22  1  0  0  0  0
 19 21  1  0  0  0  0
 19 20  1  0  0  0  0
 21 66  1  0  0  0  0
 22 23  1  0  0  0  0
 22 24  1  0  0  0  0
 22 41  1  0  0  0  0
 25 27  1  0  0  0  0
 25 38  1  0  0  0  0
 25 26  1  0  0  0  0
 25 24  1  0  0  0  0
 27 30  1  0  0  0  0
 27 29  1  0  0  0  0
 27 28  1  0  0  0  0
 29 67  1  0  0  0  0
 29 68  1  0  0  0  0
 30 32  1  0  0  0  0
 30 31  1  0  0  0  0
 32 69  1  0  0  0  0
 33 30  1  0  0  0  0
 33 34  1  0  0  0  0
 33 35  1  0  0  0  0
 35 70  1  0  0  0  0
 36 33  1  0  0  0  0
 36 37  1  0  0  0  0
 36 38  1  0  0  0  0
 36 39  1  0  0  0  0
 39 40  1  0  0  0  0
 39 71  1  0  0  0  0
 39 72  1  0  0  0  0
 40 73  1  0  0  0  0
 40 74  1  0  0  0  0
 41 43  1  0  0  0  0
 41 44  1  0  0  0  0
 41 42  1  0  0  0  0
 44 45  1  0  0  0  0
 44 75  1  0  0  0  0
 44 76  1  0  0  0  0
 45 77  1  0  0  0  0
 46 78  1  0  0  0  0
 47 79  1  0  0  0  0
 47 80  1  0  0  0  0
 48 51  1  0  0  0  0
 48 50  1  0  0  0  0
 48 49  1  0  0  0  0
 50 81  1  0  0  0  0
 50 82  1  0  0  0  0
 51 54  1  0  0  0  0
 51 53  1  0  0  0  0
 51 52  1  0  0  0  0
 53 83  1  0  0  0  0
 54 55  1  0  0  0  0
 54 56  1  0  0  0  0
 54 57  1  0  0  0  0
 56 84  1  0  0  0  0
 57 59  1  0  0  0  0
 57 60  1  0  0  0  0
 57 58  1  0  0  0  0
 60 61  1  0  0  0  0
 60 85  1  0  0  0  0
 60 86  1  0  0  0  0
 61 87  1  0  0  0  0
M  END
>  <energy>
167.59317853779004

$$$$
