2BE0_JS5_A_50
  1228              3D

113117  0  0  0  0  0  0  0  0999 V2000
    0.9349   -1.6199   -0.2791 C   0  0  0  0  0  0  0  0  0  0  0  0
    1.3238   -0.6019   -0.3616 H   0  0  0  0  0  0  0  0  0  0  0  0
   -0.0705   -1.7180    0.7188 O   0  0  0  0  0  0  0  0  0  0  0  0
   -0.1660   -0.7348    1.7411 C   0  0  0  0  0  0  0  0  0  0  0  0
   -1.1449   -0.9526    2.1949 H   0  0  0  0  0  0  0  0  0  0  0  0
   -0.2067    0.7409    1.2566 C   0  0  0  0  0  0  0  0  0  0  0  0
    0.7802    1.0075    0.8628 H   0  0  0  0  0  0  0  0  0  0  0  0
   -0.5085    1.7000    2.4203 C   0  0  0  0  0  0  0  0  0  0  0  0
    0.4012    1.4470    3.6284 C   0  0  0  0  0  0  0  0  0  0  0  0
    1.4383    1.6813    3.3413 H   0  0  0  0  0  0  0  0  0  0  0  0
    0.0306    2.3603    4.6987 N   0  0  0  0  0  0  0  0  0  0  0  0
    0.3357   -0.0345    4.0566 C   0  0  0  0  0  0  0  0  0  0  0  0
   -0.7009   -0.3248    4.2808 H   0  0  0  0  0  0  0  0  0  0  0  0
    0.8840   -0.9011    2.8810 C   0  0  0  0  0  0  0  0  0  0  0  0
    1.8571   -0.5135    2.5373 H   0  0  0  0  0  0  0  0  0  0  0  0
    1.0403   -2.2869    3.2289 O   0  0  0  0  0  0  0  0  0  0  0  0
    2.2210   -2.6205    3.9840 C   0  0  0  0  0  0  0  0  0  0  0  0
    1.8621   -3.2209    4.8302 H   0  0  0  0  0  0  0  0  0  0  0  0
    2.9571   -1.5033    4.4993 O   0  0  0  0  0  0  0  0  0  0  0  0
    4.2123   -1.9820    4.9696 C   0  0  0  0  0  0  0  0  0  0  0  0
    4.0913   -2.2357    6.0279 H   0  0  0  0  0  0  0  0  0  0  0  0
    4.5379   -3.2143    4.1243 C   0  0  0  0  0  0  0  0  0  0  0  0
    5.3943   -2.9920    3.4733 H   0  0  0  0  0  0  0  0  0  0  0  0
    3.3073   -3.3745    3.2055 C   0  0  0  0  0  0  0  0  0  0  0  0
    3.4898   -2.8191    2.2753 H   0  0  0  0  0  0  0  0  0  0  0  0
    2.9391   -4.6979    2.8627 O   0  0  0  0  0  0  0  0  0  0  0  0
    3.9567   -5.4113    2.1469 C   0  0  0  0  0  0  0  0  0  0  0  0
    3.4177   -5.8049    0.7722 C   0  0  0  0  0  0  0  0  0  0  0  0
    4.3900   -6.2473   -0.2295 N   0  0  0  0  0  0  0  0  0  0  0  0
    5.6650   -5.5315   -0.2962 C   0  0  0  0  0  0  0  0  0  0  0  0
    6.7887   -6.3261    0.4000 C   0  0  0  0  0  0  0  0  0  0  0  0
    6.3790   -6.8240    1.2894 H   0  0  0  0  0  0  0  0  0  0  0  0
    7.9290   -5.4085    0.8964 C   0  0  0  0  0  0  0  0  0  0  0  0
    9.2092   -6.1010    1.0909 N   0  0  0  0  0  0  0  0  0  0  0  0
    9.0524   -7.5157    1.4062 C   0  0  0  0  0  0  0  0  0  0  0  0
    8.3679   -8.2719    0.2614 C   0  0  0  0  0  0  0  0  0  0  0  0
    7.3720   -7.4100   -0.5156 C   0  0  0  0  0  0  0  0  0  0  0  0
    5.0055   -4.2555    4.9712 O   0  0  0  0  0  0  0  0  0  0  0  0
    4.1265   -5.1962    5.5755 C   0  0  0  0  0  0  0  0  0  0  0  0
    3.1783   -5.2640    5.0418 H   0  0  0  0  0  0  0  0  0  0  0  0
    3.8349   -4.8529    7.0487 C   0  0  0  0  0  0  0  0  0  0  0  0
    3.2410   -3.9308    7.0802 H   0  0  0  0  0  0  0  0  0  0  0  0
    5.0687   -4.5989    7.7943 N   0  0  0  0  0  0  0  0  0  0  0  0
    2.9964   -5.9721    7.7139 C   0  0  0  0  0  0  0  0  0  0  0  0
    2.9529   -5.8194    8.7969 H   0  0  0  0  0  0  0  0  0  0  0  0
    1.6475   -5.9545    7.2324 O   0  0  0  0  0  0  0  0  0  0  0  0
    3.5672   -7.3736    7.4235 C   0  0  0  0  0  0  0  0  0  0  0  0
    2.8537   -8.1502    7.7220 H   0  0  0  0  0  0  0  0  0  0  0  0
    4.7382   -7.5567    8.2292 O   0  0  0  0  0  0  0  0  0  0  0  0
    3.9228   -7.5436    5.9324 C   0  0  0  0  0  0  0  0  0  0  0  0
    3.0005   -7.4939    5.3346 H   0  0  0  0  0  0  0  0  0  0  0  0
    4.7741   -6.4777    5.5149 O   0  0  0  0  0  0  0  0  0  0  0  0
    4.5813   -8.9080    5.6294 C   0  0  0  0  0  0  0  0  0  0  0  0
    5.6267   -8.8546    4.6076 N   0  0  0  0  0  0  0  0  0  0  0  0
    5.2428   -0.8697    4.8582 C   0  0  0  0  0  0  0  0  0  0  0  0
    4.8832    0.2093    5.7149 O   0  0  0  0  0  0  0  0  0  0  0  0
    1.0388   -0.2118    5.2804 O   0  0  0  0  0  0  0  0  0  0  0  0
   -1.2029    0.8942    0.2027 N   0  0  0  0  0  0  0  0  0  0  0  0
    0.2877   -2.0251   -1.6158 C   0  0  0  0  0  0  0  0  0  0  0  0
   -0.4249   -1.2356   -1.8803 H   0  0  0  0  0  0  0  0  0  0  0  0
   -0.4797   -3.2646   -1.4899 N   0  0  0  0  0  0  0  0  0  0  0  0
    1.3165   -2.1251   -2.7530 C   0  0  0  0  0  0  0  0  0  0  0  0
    0.8941   -2.6522   -3.6132 H   0  0  0  0  0  0  0  0  0  0  0  0
    1.6449   -0.8112   -3.1924 O   0  0  0  0  0  0  0  0  0  0  0  0
    2.6060   -2.8375   -2.3120 C   0  0  0  0  0  0  0  0  0  0  0  0
    3.4201   -2.6735   -3.0257 H   0  0  0  0  0  0  0  0  0  0  0  0
    2.3518   -4.2495   -2.2906 O   0  0  0  0  0  0  0  0  0  0  0  0
    3.0978   -2.4407   -0.9074 C   0  0  0  0  0  0  0  0  0  0  0  0
    3.8150   -3.1973   -0.5814 H   0  0  0  0  0  0  0  0  0  0  0  0
    2.0173   -2.4956    0.0383 O   0  0  0  0  0  0  0  0  0  0  0  0
    3.8257   -1.0915   -0.8297 C   0  0  0  0  0  0  0  0  0  0  0  0
    5.2332   -1.3204   -0.8870 O   0  0  0  0  0  0  0  0  0  0  0  0
   -1.5592    1.5969    2.7215 H   0  0  0  0  0  0  0  0  0  0  0  0
   -0.3933    2.7365    2.0747 H   0  0  0  0  0  0  0  0  0  0  0  0
    0.8953    2.6937    5.1453 H   0  0  0  0  0  0  0  0  0  0  0  0
   -0.4850    1.8694    5.4299 H   0  0  0  0  0  0  0  0  0  0  0  0
    4.1879   -6.3160    2.7187 H   0  0  0  0  0  0  0  0  0  0  0  0
    4.8747   -4.8217    2.0857 H   0  0  0  0  0  0  0  0  0  0  0  0
    2.8174   -4.9884    0.3606 H   0  0  0  0  0  0  0  0  0  0  0  0
    2.7057   -6.6265    0.9232 H   0  0  0  0  0  0  0  0  0  0  0  0
    4.5392   -7.2589   -0.1599 H   0  0  0  0  0  0  0  0  0  0  0  0
    5.5908   -4.5171    0.1157 H   0  0  0  0  0  0  0  0  0  0  0  0
    5.9183   -5.3818   -1.3551 H   0  0  0  0  0  0  0  0  0  0  0  0
    7.6239   -4.9419    1.8413 H   0  0  0  0  0  0  0  0  0  0  0  0
    8.1053   -4.5927    0.1867 H   0  0  0  0  0  0  0  0  0  0  0  0
    9.7526   -5.6382    1.8174 H   0  0  0  0  0  0  0  0  0  0  0  0
    8.4672   -7.6284    2.3274 H   0  0  0  0  0  0  0  0  0  0  0  0
   10.0305   -7.9685    1.6080 H   0  0  0  0  0  0  0  0  0  0  0  0
    7.8451   -9.1436    0.6786 H   0  0  0  0  0  0  0  0  0  0  0  0
    9.1197   -8.6652   -0.4349 H   0  0  0  0  0  0  0  0  0  0  0  0
    6.5829   -8.0474   -0.9314 H   0  0  0  0  0  0  0  0  0  0  0  0
    7.8749   -6.9435   -1.3710 H   0  0  0  0  0  0  0  0  0  0  0  0
    4.8465   -4.3829    8.7651 H   0  0  0  0  0  0  0  0  0  0  0  0
    5.5211   -3.7662    7.4169 H   0  0  0  0  0  0  0  0  0  0  0  0
    1.4990   -5.1392    6.7271 H   0  0  0  0  0  0  0  0  0  0  0  0
    5.4355   -6.9776    7.8762 H   0  0  0  0  0  0  0  0  0  0  0  0
    3.8078   -9.6003    5.2802 H   0  0  0  0  0  0  0  0  0  0  0  0
    5.0057   -9.3582    6.5320 H   0  0  0  0  0  0  0  0  0  0  0  0
    6.5216   -8.6464    5.0527 H   0  0  0  0  0  0  0  0  0  0  0  0
    5.4452   -8.0810    3.9699 H   0  0  0  0  0  0  0  0  0  0  0  0
    5.3034   -0.4805    3.8325 H   0  0  0  0  0  0  0  0  0  0  0  0
    6.2350   -1.2237    5.1563 H   0  0  0  0  0  0  0  0  0  0  0  0
    5.0422   -0.0880    6.6300 H   0  0  0  0  0  0  0  0  0  0  0  0
    1.9464    0.1162    5.1653 H   0  0  0  0  0  0  0  0  0  0  0  0
   -1.9500    1.5230    0.4896 H   0  0  0  0  0  0  0  0  0  0  0  0
   -0.7660    1.3294   -0.6105 H   0  0  0  0  0  0  0  0  0  0  0  0
    0.1352   -4.0708   -1.5020 H   0  0  0  0  0  0  0  0  0  0  0  0
   -1.1210   -3.3679   -2.2798 H   0  0  0  0  0  0  0  0  0  0  0  0
    1.2129   -0.6746   -4.0516 H   0  0  0  0  0  0  0  0  0  0  0  0
    3.0226   -4.6702   -2.8611 H   0  0  0  0  0  0  0  0  0  0  0  0
    3.5564   -0.3934   -1.6278 H   0  0  0  0  0  0  0  0  0  0  0  0
    3.6196   -0.5987    0.1253 H   0  0  0  0  0  0  0  0  0  0  0  0
    5.4401   -1.6271   -1.7868 H   0  0  0  0  0  0  0  0  0  0  0  0
  1 59  1  0  0  0  0
  1 70  1  0  0  0  0
  1  3  1  0  0  0  0
  1  2  1  0  0  0  0
  4  6  1  0  0  0  0
  4  5  1  0  0  0  0
  4  3  1  0  0  0  0
  6  7  1  0  0  0  0
  6  8  1  0  0  0  0
  6 58  1  0  0  0  0
  8  9  1  0  0  0  0
  8 73  1  0  0  0  0
  8 74  1  0  0  0  0
  9 12  1  0  0  0  0
  9 11  1  0  0  0  0
  9 10  1  0  0  0  0
 11 75  1  0  0  0  0
 11 76  1  0  0  0  0
 12 13  1  0  0  0  0
 12 14  1  0  0  0  0
 12 57  1  0  0  0  0
 14  4  1  0  0  0  0
 14 16  1  0  0  0  0
 14 15  1  0  0  0  0
 17 19  1  0  0  0  0
 17 24  1  0  0  0  0
 17 18  1  0  0  0  0
 17 16  1  0  0  0  0
 19 20  1  0  0  0  0
 20 21  1  0  0  0  0
 20 22  1  0  0  0  0
 20 55  1  0  0  0  0
 22 24  1  0  0  0  0
 22 38  1  0  0  0  0
 22 23  1  0  0  0  0
 24 26  1  0  0  0  0
 24 25  1  0  0  0  0
 26 27  1  0  0  0  0
 27 28  1  0  0  0  0
 27 77  1  0  0  0  0
 27 78  1  0  0  0  0
 28 29  1  0  0  0  0
 28 79  1  0  0  0  0
 28 80  1  0  0  0  0
 29 30  1  0  0  0  0
 29 81  1  0  0  0  0
 30 82  1  0  0  0  0
 30 83  1  0  0  0  0
 31 33  1  0  0  0  0
 31 37  1  0  0  0  0
 31 32  1  0  0  0  0
 31 30  1  0  0  0  0
 33 34  1  0  0  0  0
 33 84  1  0  0  0  0
 33 85  1  0  0  0  0
 34 35  1  0  0  0  0
 34 86  1  0  0  0  0
 35 36  1  0  0  0  0
 35 87  1  0  0  0  0
 35 88  1  0  0  0  0
 36 37  1  0  0  0  0
 36 89  1  0  0  0  0
 36 90  1  0  0  0  0
 37 91  1  0  0  0  0
 37 92  1  0  0  0  0
 39 41  1  0  0  0  0
 39 52  1  0  0  0  0
 39 40  1  0  0  0  0
 39 38  1  0  0  0  0
 41 44  1  0  0  0  0
 41 43  1  0  0  0  0
 41 42  1  0  0  0  0
 43 93  1  0  0  0  0
 43 94  1  0  0  0  0
 44 47  1  0  0  0  0
 44 46  1  0  0  0  0
 44 45  1  0  0  0  0
 46 95  1  0  0  0  0
 47 48  1  0  0  0  0
 47 49  1  0  0  0  0
 47 50  1  0  0  0  0
 49 96  1  0  0  0  0
 50 51  1  0  0  0  0
 50 52  1  0  0  0  0
 50 53  1  0  0  0  0
 53 54  1  0  0  0  0
 53 97  1  0  0  0  0
 53 98  1  0  0  0  0
 54 99  1  0  0  0  0
 54100  1  0  0  0  0
 55 56  1  0  0  0  0
 55101  1  0  0  0  0
 55102  1  0  0  0  0
 56103  1  0  0  0  0
 57104  1  0  0  0  0
 58105  1  0  0  0  0
 58106  1  0  0  0  0
 59 62  1  0  0  0  0
 59 61  1  0  0  0  0
 59 60  1  0  0  0  0
 61107  1  0  0  0  0
 61108  1  0  0  0  0
 62 64  1  0  0  0  0
 62 63  1  0  0  0  0
 64109  1  0  0  0  0
 65 62  1  0  0  0  0
 65 66  1  0  0  0  0
 65 67  1  0  0  0  0
 67110  1  0  0  0  0
 68 65  1  0  0  0  0
 68 70  1  0  0  0  0
 68 71  1  0  0  0  0
 68 69  1  0  0  0  0
 71 72  1  0  0  0  0
 71111  1  0  0  0  0
 71112  1  0  0  0  0
 72113  1  0  0  0  0
M  END
>  <energy>
180.25199528181145

$$$$
