3DW4_GOL_A_1
  1228              3D

 14 13  0  0  0  0  0  0  0  0999 V2000
   -1.0893    0.2871   -0.4614 C   0  0  0  0  0  0  0  0  0  0  0  0
   -2.2621   -0.5183   -0.4937 O   0  0  0  0  0  0  0  0  0  0  0  0
    0.1174   -0.5546   -0.0563 C   0  0  0  0  0  0  0  0  0  0  0  0
    1.2250    0.3149    0.1694 O   0  0  0  0  0  0  0  0  0  0  0  0
    0.5102   -1.5539   -1.1385 C   0  0  0  0  0  0  0  0  0  0  0  0
    1.3847   -2.5334   -0.5928 O   0  0  0  0  0  0  0  0  0  0  0  0
   -0.9544    0.7275   -1.4551 H   0  0  0  0  0  0  0  0  0  0  0  0
   -1.2560    1.1006    0.2533 H   0  0  0  0  0  0  0  0  0  0  0  0
   -2.3454   -0.9481    0.3747 H   0  0  0  0  0  0  0  0  0  0  0  0
   -0.0951   -1.0750    0.8866 H   0  0  0  0  0  0  0  0  0  0  0  0
    1.0556    0.7798    1.0073 H   0  0  0  0  0  0  0  0  0  0  0  0
   -0.3645   -2.0708   -1.5472 H   0  0  0  0  0  0  0  0  0  0  0  0
    1.0334   -1.0620   -1.9654 H   0  0  0  0  0  0  0  0  0  0  0  0
    0.9019   -2.9874    0.1192 H   0  0  0  0  0  0  0  0  0  0  0  0
  2  1  1  0  0  0  0
  3  1  1  0  0  0  0
  4  3  1  0  0  0  0
  5  3  1  0  0  0  0
  6  5  1  0  0  0  0
  1  7  1  0  0  0  0
  1  8  1  0  0  0  0
  2  9  1  0  0  0  0
  3 10  1  0  0  0  0
  4 11  1  0  0  0  0
  5 12  1  0  0  0  0
  5 13  1  0  0  0  0
  6 14  1  0  0  0  0
M  END
>  <energy>
8.3663168863459596

$$$$
