3S4P_JS6_A_50
  1228              3D

111115  0  0  0  0  0  0  0  0999 V2000
    4.6180    0.4031   -1.5719 C   0  0  0  0  0  0  0  0  0  0  0  0
    5.0080    0.5921   -2.5834 H   0  0  0  0  0  0  0  0  0  0  0  0
    4.1385   -0.9439   -1.6105 O   0  0  0  0  0  0  0  0  0  0  0  0
    2.7387   -1.2671   -1.5379 C   0  0  0  0  0  0  0  0  0  0  0  0
    2.3506   -0.6979   -0.6973 H   0  0  0  0  0  0  0  0  0  0  0  0
    2.7863   -2.7667   -1.1295 C   0  0  0  0  0  0  0  0  0  0  0  0
    3.7153   -3.2057   -1.5145 H   0  0  0  0  0  0  0  0  0  0  0  0
    1.6383   -3.6278   -1.6273 C   0  0  0  0  0  0  0  0  0  0  0  0
    1.5611   -3.5258   -3.1419 C   0  0  0  0  0  0  0  0  0  0  0  0
    2.5178   -3.8591   -3.5657 H   0  0  0  0  0  0  0  0  0  0  0  0
    0.5101   -4.4298   -3.6440 N   0  0  0  0  0  0  0  0  0  0  0  0
    1.2892   -2.0882   -3.6164 C   0  0  0  0  0  0  0  0  0  0  0  0
    0.2117   -1.9104   -3.5732 H   0  0  0  0  0  0  0  0  0  0  0  0
    2.0029   -0.9253   -2.8670 C   0  0  0  0  0  0  0  0  0  0  0  0
    2.7479   -0.5029   -3.5541 H   0  0  0  0  0  0  0  0  0  0  0  0
    1.0320    0.1641   -2.7629 O   0  0  0  0  0  0  0  0  0  0  0  0
    0.1657    0.1054   -1.6272 C   0  0  0  0  0  0  0  0  0  0  0  0
    0.6907    0.5996   -0.7976 H   0  0  0  0  0  0  0  0  0  0  0  0
   -1.2304    0.7538   -1.7945 C   0  0  0  0  0  0  0  0  0  0  0  0
   -1.6928    0.3148   -2.6850 H   0  0  0  0  0  0  0  0  0  0  0  0
   -1.3521    2.1508   -2.0551 O   0  0  0  0  0  0  0  0  0  0  0  0
   -0.8025    3.0654   -1.1240 C   0  0  0  0  0  0  0  0  0  0  0  0
   -1.8035    4.1472   -0.6564 C   0  0  0  0  0  0  0  0  0  0  0  0
   -3.2157    3.7605   -0.7060 N   0  0  0  0  0  0  0  0  0  0  0  0
   -3.7887    3.4163    0.5900 C   0  0  0  0  0  0  0  0  0  0  0  0
   -5.2747    3.0170    0.4809 C   0  0  0  0  0  0  0  0  0  0  0  0
   -5.4930    1.7140   -0.2558 C   0  0  0  0  0  0  0  0  0  0  0  0
   -5.5220    1.6968   -1.6594 C   0  0  0  0  0  0  0  0  0  0  0  0
   -5.8322    0.5289   -2.3536 C   0  0  0  0  0  0  0  0  0  0  0  0
   -6.1289   -0.6369   -1.6523 C   0  0  0  0  0  0  0  0  0  0  0  0
   -6.1217   -0.6328   -0.2583 C   0  0  0  0  0  0  0  0  0  0  0  0
   -5.8132    0.5395    0.4382 C   0  0  0  0  0  0  0  0  0  0  0  0
   -1.9108    0.1608   -0.5389 C   0  0  0  0  0  0  0  0  0  0  0  0
   -2.9919    0.3039   -0.5223 H   0  0  0  0  0  0  0  0  0  0  0  0
   -1.3388    0.8113    0.6258 O   0  0  0  0  0  0  0  0  0  0  0  0
   -1.5385    0.1856    1.8905 C   0  0  0  0  0  0  0  0  0  0  0  0
   -2.5548   -0.2232    1.9290 H   0  0  0  0  0  0  0  0  0  0  0  0
   -1.3474    1.2493    3.0349 C   0  0  0  0  0  0  0  0  0  0  0  0
   -2.1591    1.9848    2.9678 H   0  0  0  0  0  0  0  0  0  0  0  0
   -0.0664    2.0265    2.9133 N   0  0  0  0  0  0  0  0  0  0  0  0
   -1.4449    0.5224    4.4139 C   0  0  0  0  0  0  0  0  0  0  0  0
   -1.1429    1.2037    5.2187 H   0  0  0  0  0  0  0  0  0  0  0  0
   -2.8177    0.1724    4.6495 O   0  0  0  0  0  0  0  0  0  0  0  0
   -0.5754   -0.7517    4.4622 C   0  0  0  0  0  0  0  0  0  0  0  0
   -0.7750   -1.3013    5.3883 H   0  0  0  0  0  0  0  0  0  0  0  0
    0.8092   -0.3777    4.4664 O   0  0  0  0  0  0  0  0  0  0  0  0
   -0.9008   -1.6381    3.2518 C   0  0  0  0  0  0  0  0  0  0  0  0
   -1.9653   -1.8930    3.2168 H   0  0  0  0  0  0  0  0  0  0  0  0
   -0.5569   -0.8487    2.0875 O   0  0  0  0  0  0  0  0  0  0  0  0
   -0.0548   -2.9230    3.2312 C   0  0  0  0  0  0  0  0  0  0  0  0
   -0.6265   -3.9240    2.3242 N   0  0  0  0  0  0  0  0  0  0  0  0
   -1.4508   -1.2975   -0.6789 C   0  0  0  0  0  0  0  0  0  0  0  0
   -1.3832   -1.7969    0.2820 H   0  0  0  0  0  0  0  0  0  0  0  0
   -0.1122   -1.2502   -1.2207 O   0  0  0  0  0  0  0  0  0  0  0  0
   -2.3843   -2.2054   -1.4994 C   0  0  0  0  0  0  0  0  0  0  0  0
   -2.3187   -1.9562   -2.8972 O   0  0  0  0  0  0  0  0  0  0  0  0
    1.5628   -2.0392   -5.0356 O   0  0  0  0  0  0  0  0  0  0  0  0
    2.8723   -2.9048    0.3394 N   0  0  0  0  0  0  0  0  0  0  0  0
    5.8434    0.4277   -0.6114 C   0  0  0  0  0  0  0  0  0  0  0  0
    6.4536    1.3154   -0.8353 H   0  0  0  0  0  0  0  0  0  0  0  0
    6.7269   -0.7598   -0.7272 N   0  0  0  0  0  0  0  0  0  0  0  0
    5.3178    0.5561    0.8266 C   0  0  0  0  0  0  0  0  0  0  0  0
    4.6469   -0.2752    1.0810 H   0  0  0  0  0  0  0  0  0  0  0  0
    6.3926    0.5149    1.7727 O   0  0  0  0  0  0  0  0  0  0  0  0
    4.5773    1.8809    0.9304 C   0  0  0  0  0  0  0  0  0  0  0  0
    5.2341    2.7159    0.6530 H   0  0  0  0  0  0  0  0  0  0  0  0
    4.2048    2.0723    2.3063 O   0  0  0  0  0  0  0  0  0  0  0  0
    3.3560    1.8110    0.0102 C   0  0  0  0  0  0  0  0  0  0  0  0
    2.6332    1.0936    0.4139 H   0  0  0  0  0  0  0  0  0  0  0  0
    3.6658    1.4388   -1.3418 O   0  0  0  0  0  0  0  0  0  0  0  0
    2.6767    3.1876   -0.0283 C   0  0  0  0  0  0  0  0  0  0  0  0
    2.1179    3.4974    1.2526 O   0  0  0  0  0  0  0  0  0  0  0  0
    1.8192   -4.6716   -1.3434 H   0  0  0  0  0  0  0  0  0  0  0  0
    0.6897   -3.3787   -1.1492 H   0  0  0  0  0  0  0  0  0  0  0  0
    0.3939   -4.2360   -4.6435 H   0  0  0  0  0  0  0  0  0  0  0  0
    0.8359   -5.3948   -3.5960 H   0  0  0  0  0  0  0  0  0  0  0  0
    0.0018    3.5819   -1.6566 H   0  0  0  0  0  0  0  0  0  0  0  0
   -0.3429    2.5882   -0.2583 H   0  0  0  0  0  0  0  0  0  0  0  0
   -1.5038    4.5012    0.3379 H   0  0  0  0  0  0  0  0  0  0  0  0
   -1.6871    5.0155   -1.3174 H   0  0  0  0  0  0  0  0  0  0  0  0
   -3.7558    4.4994   -1.1517 H   0  0  0  0  0  0  0  0  0  0  0  0
   -3.7126    4.2751    1.2674 H   0  0  0  0  0  0  0  0  0  0  0  0
   -3.2304    2.5880    1.0296 H   0  0  0  0  0  0  0  0  0  0  0  0
   -5.6756    2.9247    1.4978 H   0  0  0  0  0  0  0  0  0  0  0  0
   -5.8463    3.8169   -0.0044 H   0  0  0  0  0  0  0  0  0  0  0  0
   -5.2934    2.5990   -2.2234 H   0  0  0  0  0  0  0  0  0  0  0  0
   -5.8953    0.5424   -3.4403 H   0  0  0  0  0  0  0  0  0  0  0  0
   -6.4238   -1.5319   -2.1957 H   0  0  0  0  0  0  0  0  0  0  0  0
   -6.4275   -1.5254    0.2831 H   0  0  0  0  0  0  0  0  0  0  0  0
   -5.8623    0.5339    1.5251 H   0  0  0  0  0  0  0  0  0  0  0  0
   -0.2684    2.9966    3.1632 H   0  0  0  0  0  0  0  0  0  0  0  0
    0.5789    1.6952    3.6399 H   0  0  0  0  0  0  0  0  0  0  0  0
   -2.9875    0.2890    5.6042 H   0  0  0  0  0  0  0  0  0  0  0  0
    1.0940   -0.3656    3.5254 H   0  0  0  0  0  0  0  0  0  0  0  0
    0.9671   -2.7010    2.9012 H   0  0  0  0  0  0  0  0  0  0  0  0
    0.0095   -3.3589    4.2339 H   0  0  0  0  0  0  0  0  0  0  0  0
   -0.3497   -4.8578    2.6354 H   0  0  0  0  0  0  0  0  0  0  0  0
   -0.1873   -3.8129    1.4074 H   0  0  0  0  0  0  0  0  0  0  0  0
   -2.0979   -3.2511   -1.3421 H   0  0  0  0  0  0  0  0  0  0  0  0
   -3.4222   -2.0929   -1.1764 H   0  0  0  0  0  0  0  0  0  0  0  0
   -1.7410   -2.6410   -3.2825 H   0  0  0  0  0  0  0  0  0  0  0  0
    2.5246   -1.9502   -5.1496 H   0  0  0  0  0  0  0  0  0  0  0  0
    3.7694   -2.5335    0.6542 H   0  0  0  0  0  0  0  0  0  0  0  0
    2.1484   -2.3312    0.7728 H   0  0  0  0  0  0  0  0  0  0  0  0
    6.1039   -1.5695   -0.7958 H   0  0  0  0  0  0  0  0  0  0  0  0
    7.2271   -0.8519    0.1656 H   0  0  0  0  0  0  0  0  0  0  0  0
    6.0269    0.9180    2.5911 H   0  0  0  0  0  0  0  0  0  0  0  0
    3.5831    2.8329    2.3155 H   0  0  0  0  0  0  0  0  0  0  0  0
    1.9050    3.2146   -0.7956 H   0  0  0  0  0  0  0  0  0  0  0  0
    3.4032    3.9676   -0.2812 H   0  0  0  0  0  0  0  0  0  0  0  0
    1.3039    2.9604    1.3632 H   0  0  0  0  0  0  0  0  0  0  0  0
  1  2  1  0  0  0  0
  3  1  1  0  0  0  0
  4  3  1  0  0  0  0
  4  5  1  0  0  0  0
  6  4  1  0  0  0  0
  6  7  1  0  0  0  0
  8  6  1  0  0  0  0
  9  8  1  0  0  0  0
  9 10  1  0  0  0  0
 11  9  1  0  0  0  0
 12  9  1  0  0  0  0
 12 13  1  0  0  0  0
 14 12  1  0  0  0  0
 14 15  1  0  0  0  0
 14  4  1  0  0  0  0
 16 14  1  0  0  0  0
 17 16  1  0  0  0  0
 17 18  1  0  0  0  0
 19 17  1  0  0  0  0
 19 20  1  0  0  0  0
 21 19  1  0  0  0  0
 22 21  1  0  0  0  0
 23 22  1  0  0  0  0
 24 23  1  0  0  0  0
 25 24  1  0  0  0  0
 26 25  1  0  0  0  0
 27 26  1  0  0  0  0
 28 27  2  0  0  0  0
 29 28  1  0  0  0  0
 30 29  2  0  0  0  0
 31 30  1  0  0  0  0
 32 31  2  0  0  0  0
 32 27  1  0  0  0  0
 33 19  1  0  0  0  0
 33 34  1  0  0  0  0
 35 33  1  0  0  0  0
 36 35  1  0  0  0  0
 36 37  1  0  0  0  0
 38 36  1  0  0  0  0
 38 39  1  0  0  0  0
 40 38  1  0  0  0  0
 41 38  1  0  0  0  0
 41 42  1  0  0  0  0
 43 41  1  0  0  0  0
 44 41  1  0  0  0  0
 44 45  1  0  0  0  0
 46 44  1  0  0  0  0
 47 44  1  0  0  0  0
 47 48  1  0  0  0  0
 49 47  1  0  0  0  0
 49 36  1  0  0  0  0
 50 47  1  0  0  0  0
 51 50  1  0  0  0  0
 52 33  1  0  0  0  0
 52 53  1  0  0  0  0
 54 52  1  0  0  0  0
 54 17  1  0  0  0  0
 55 52  1  0  0  0  0
 56 55  1  0  0  0  0
 57 12  1  0  0  0  0
 58  6  1  0  0  0  0
 59  1  1  0  0  0  0
 59 60  1  0  0  0  0
 61 59  1  0  0  0  0
 62 59  1  0  0  0  0
 62 63  1  0  0  0  0
 64 62  1  0  0  0  0
 65 62  1  0  0  0  0
 65 66  1  0  0  0  0
 67 65  1  0  0  0  0
 68 65  1  0  0  0  0
 68 69  1  0  0  0  0
 70 68  1  0  0  0  0
 70  1  1  0  0  0  0
 71 68  1  0  0  0  0
 72 71  1  0  0  0  0
  8 73  1  0  0  0  0
  8 74  1  0  0  0  0
 11 75  1  0  0  0  0
 11 76  1  0  0  0  0
 22 77  1  0  0  0  0
 22 78  1  0  0  0  0
 23 79  1  0  0  0  0
 23 80  1  0  0  0  0
 24 81  1  0  0  0  0
 25 82  1  0  0  0  0
 25 83  1  0  0  0  0
 26 84  1  0  0  0  0
 26 85  1  0  0  0  0
 28 86  1  0  0  0  0
 29 87  1  0  0  0  0
 30 88  1  0  0  0  0
 31 89  1  0  0  0  0
 32 90  1  0  0  0  0
 40 91  1  0  0  0  0
 40 92  1  0  0  0  0
 43 93  1  0  0  0  0
 46 94  1  0  0  0  0
 50 95  1  0  0  0  0
 50 96  1  0  0  0  0
 51 97  1  0  0  0  0
 51 98  1  0  0  0  0
 55 99  1  0  0  0  0
 55100  1  0  0  0  0
 56101  1  0  0  0  0
 57102  1  0  0  0  0
 58103  1  0  0  0  0
 58104  1  0  0  0  0
 61105  1  0  0  0  0
 61106  1  0  0  0  0
 64107  1  0  0  0  0
 67108  1  0  0  0  0
 71109  1  0  0  0  0
 71110  1  0  0  0  0
 72111  1  0  0  0  0
M  END
>  <energy>
194.33638710205173

$$$$
