2OE5_AM2_B_101
  1228              3D

 78 81  0  0  0  0  0  0  0  0999 V2000
   -2.7527    2.5617   -1.5392 C   0  0  0  0  0  0  0  0  0  0  0  0
   -3.4575    3.3131   -1.9188 H   0  0  0  0  0  0  0  0  0  0  0  0
   -2.6313    1.4640   -2.6266 C   0  0  0  0  0  0  0  0  0  0  0  0
   -2.4027    1.9657   -3.5768 H   0  0  0  0  0  0  0  0  0  0  0  0
   -1.4654    0.5134   -2.3017 C   0  0  0  0  0  0  0  0  0  0  0  0
   -0.1959    1.3363   -2.1263 C   0  0  0  0  0  0  0  0  0  0  0  0
   -0.0040    1.8216   -3.0881 H   0  0  0  0  0  0  0  0  0  0  0  0
   -0.3959    2.3748   -1.0271 C   0  0  0  0  0  0  0  0  0  0  0  0
   -0.5852    1.8906   -0.0621 H   0  0  0  0  0  0  0  0  0  0  0  0
    0.8628    3.2284   -0.9703 C   0  0  0  0  0  0  0  0  0  0  0  0
    0.7471    4.0102   -0.2087 H   0  0  0  0  0  0  0  0  0  0  0  0
    2.0839    2.3500   -0.6446 C   0  0  0  0  0  0  0  0  0  0  0  0
    2.2330    2.4323    0.4409 H   0  0  0  0  0  0  0  0  0  0  0  0
    1.8787    0.8285   -0.9281 C   0  0  0  0  0  0  0  0  0  0  0  0
    2.8203    0.4107   -1.3138 H   0  0  0  0  0  0  0  0  0  0  0  0
    0.9043    0.4589   -1.8988 O   0  0  0  0  0  0  0  0  0  0  0  0
    1.5954    0.1922    0.3313 O   0  0  0  0  0  0  0  0  0  0  0  0
    2.4251   -0.9407    0.6020 C   0  0  0  0  0  0  0  0  0  0  0  0
    2.3888   -1.6021   -0.2805 H   0  0  0  0  0  0  0  0  0  0  0  0
    1.9215   -1.7265    1.7932 C   0  0  0  0  0  0  0  0  0  0  0  0
    2.5719   -2.5961    1.9569 H   0  0  0  0  0  0  0  0  0  0  0  0
    1.8826   -0.8440    3.0411 C   0  0  0  0  0  0  0  0  0  0  0  0
    0.9259   -0.3108    3.0632 H   0  0  0  0  0  0  0  0  0  0  0  0
    3.0690    0.1302    3.1668 C   0  0  0  0  0  0  0  0  0  0  0  0
    3.6553   -0.1449    4.0491 H   0  0  0  0  0  0  0  0  0  0  0  0
    4.0137    0.2754    1.9426 C   0  0  0  0  0  0  0  0  0  0  0  0
    3.9374    1.2760    1.5023 H   0  0  0  0  0  0  0  0  0  0  0  0
    5.4835    0.0851    2.3572 C   0  0  0  0  0  0  0  0  0  0  0  0
    5.9888    1.3026    2.8891 O   0  0  0  0  0  0  0  0  0  0  0  0
    3.7886   -0.6366    0.8635 O   0  0  0  0  0  0  0  0  0  0  0  0
    2.5304    1.4762    3.4607 N   0  0  0  0  0  0  0  0  0  0  0  0
    1.8728   -1.7157    4.1754 O   0  0  0  0  0  0  0  0  0  0  0  0
    0.6136   -2.2218    1.5247 O   0  0  0  0  0  0  0  0  0  0  0  0
    3.3123    2.8384   -1.2994 N   0  0  0  0  0  0  0  0  0  0  0  0
    3.8735    4.0090   -0.6298 C   0  0  0  0  0  0  0  0  0  0  0  0
    1.0243    3.8952   -2.2227 O   0  0  0  0  0  0  0  0  0  0  0  0
   -1.4974    3.2344   -1.3548 O   0  0  0  0  0  0  0  0  0  0  0  0
   -3.8826    0.7355   -2.8262 N   0  0  0  0  0  0  0  0  0  0  0  0
   -3.3288    2.0011   -0.3570 O   0  0  0  0  0  0  0  0  0  0  0  0
   -3.3912    2.8159    0.8329 C   0  0  0  0  0  0  0  0  0  0  0  0
   -2.3655    3.0032    1.1686 H   0  0  0  0  0  0  0  0  0  0  0  0
   -4.1739    4.1202    0.6205 C   0  0  0  0  0  0  0  0  0  0  0  0
   -5.1036    3.8865    0.0765 H   0  0  0  0  0  0  0  0  0  0  0  0
   -4.5014    4.8858    1.9088 C   0  0  0  0  0  0  0  0  0  0  0  0
   -3.9380    5.8295    1.9419 H   0  0  0  0  0  0  0  0  0  0  0  0
   -4.3022    4.1538    3.2414 C   0  0  0  0  0  0  0  0  0  0  0  0
   -5.0490    4.5210    3.9585 H   0  0  0  0  0  0  0  0  0  0  0  0
   -4.3996    2.6199    3.2098 C   0  0  0  0  0  0  0  0  0  0  0  0
   -4.1618    1.9517    1.8486 C   0  0  0  0  0  0  0  0  0  0  0  0
   -5.1479    1.7250    1.4202 H   0  0  0  0  0  0  0  0  0  0  0  0
   -3.4914    0.6675    2.0600 N   0  0  0  0  0  0  0  0  0  0  0  0
   -2.9938    4.5320    3.8123 N   0  0  0  0  0  0  0  0  0  0  0  0
   -5.8786    5.2854    1.8209 O   0  0  0  0  0  0  0  0  0  0  0  0
   -3.4198    5.0178   -0.1960 O   0  0  0  0  0  0  0  0  0  0  0  0
   -1.3354   -0.2220   -3.1070 H   0  0  0  0  0  0  0  0  0  0  0  0
   -1.6748   -0.0714   -1.3979 H   0  0  0  0  0  0  0  0  0  0  0  0
    5.5955   -0.6981    3.1112 H   0  0  0  0  0  0  0  0  0  0  0  0
    6.1027   -0.1891    1.4973 H   0  0  0  0  0  0  0  0  0  0  0  0
    6.3850    1.7963    2.1495 H   0  0  0  0  0  0  0  0  0  0  0  0
    1.9931    1.4572    4.3238 H   0  0  0  0  0  0  0  0  0  0  0  0
    1.8752    1.7469    2.7300 H   0  0  0  0  0  0  0  0  0  0  0  0
    1.5952   -1.1899    4.9448 H   0  0  0  0  0  0  0  0  0  0  0  0
    0.4606   -2.9696    2.1265 H   0  0  0  0  0  0  0  0  0  0  0  0
    4.0180    2.1013   -1.2972 H   0  0  0  0  0  0  0  0  0  0  0  0
    4.8446    4.2489   -1.0767 H   0  0  0  0  0  0  0  0  0  0  0  0
    4.0364    3.8328    0.4402 H   0  0  0  0  0  0  0  0  0  0  0  0
    3.2278    4.8852   -0.7534 H   0  0  0  0  0  0  0  0  0  0  0  0
    0.5135    4.7219   -2.1822 H   0  0  0  0  0  0  0  0  0  0  0  0
   -4.6244    1.1368   -2.2520 H   0  0  0  0  0  0  0  0  0  0  0  0
   -3.7781   -0.2309   -2.5194 H   0  0  0  0  0  0  0  0  0  0  0  0
   -5.3954    2.3072    3.5585 H   0  0  0  0  0  0  0  0  0  0  0  0
   -3.7105    2.1935    3.9529 H   0  0  0  0  0  0  0  0  0  0  0  0
   -3.3886    0.1957    1.1606 H   0  0  0  0  0  0  0  0  0  0  0  0
   -4.0949    0.0645    2.6202 H   0  0  0  0  0  0  0  0  0  0  0  0
   -2.2595    3.9437    3.4218 H   0  0  0  0  0  0  0  0  0  0  0  0
   -3.0035    4.3502    4.8167 H   0  0  0  0  0  0  0  0  0  0  0  0
   -5.9094    6.0891    1.2678 H   0  0  0  0  0  0  0  0  0  0  0  0
   -4.0492    5.4940   -0.7670 H   0  0  0  0  0  0  0  0  0  0  0  0
  1  2  1  0  0  0  0
  1  3  1  0  0  0  0
  1 37  1  0  0  0  0
  1 39  1  0  0  0  0
  3  5  1  0  0  0  0
  3 38  1  0  0  0  0
  3  4  1  0  0  0  0
  5  6  1  0  0  0  0
  5 55  1  0  0  0  0
  5 56  1  0  0  0  0
  6  7  1  0  0  0  0
  6  8  1  0  0  0  0
  6 16  1  0  0  0  0
  8  9  1  0  0  0  0
  8 10  1  0  0  0  0
  8 37  1  0  0  0  0
 10 11  1  0  0  0  0
 10 12  1  0  0  0  0
 10 36  1  0  0  0  0
 12 13  1  0  0  0  0
 12 14  1  0  0  0  0
 12 34  1  0  0  0  0
 14 16  1  0  0  0  0
 14 17  1  0  0  0  0
 14 15  1  0  0  0  0
 18 20  1  0  0  0  0
 18 30  1  0  0  0  0
 18 19  1  0  0  0  0
 18 17  1  0  0  0  0
 20 22  1  0  0  0  0
 20 33  1  0  0  0  0
 20 21  1  0  0  0  0
 22 24  1  0  0  0  0
 22 32  1  0  0  0  0
 22 23  1  0  0  0  0
 24 25  1  0  0  0  0
 24 26  1  0  0  0  0
 24 31  1  0  0  0  0
 26 30  1  0  0  0  0
 26 28  1  0  0  0  0
 26 27  1  0  0  0  0
 28 29  1  0  0  0  0
 28 57  1  0  0  0  0
 28 58  1  0  0  0  0
 29 59  1  0  0  0  0
 31 60  1  0  0  0  0
 31 61  1  0  0  0  0
 32 62  1  0  0  0  0
 33 63  1  0  0  0  0
 34 35  1  0  0  0  0
 34 64  1  0  0  0  0
 35 65  1  0  0  0  0
 35 66  1  0  0  0  0
 35 67  1  0  0  0  0
 36 68  1  0  0  0  0
 38 69  1  0  0  0  0
 38 70  1  0  0  0  0
 39 40  1  0  0  0  0
 40 41  1  0  0  0  0
 40 42  1  0  0  0  0
 42 44  1  0  0  0  0
 42 54  1  0  0  0  0
 42 43  1  0  0  0  0
 44 46  1  0  0  0  0
 44 53  1  0  0  0  0
 44 45  1  0  0  0  0
 46 47  1  0  0  0  0
 46 48  1  0  0  0  0
 46 52  1  0  0  0  0
 48 49  1  0  0  0  0
 48 71  1  0  0  0  0
 48 72  1  0  0  0  0
 49 50  1  0  0  0  0
 49 40  1  0  0  0  0
 49 51  1  0  0  0  0
 51 73  1  0  0  0  0
 51 74  1  0  0  0  0
 52 75  1  0  0  0  0
 52 76  1  0  0  0  0
 53 77  1  0  0  0  0
 54 78  1  0  0  0  0
M  END
>  <energy>
128.9514294249598

$$$$
