2F4S_XXX_B_501
  1228              3D

 48 49  0  0  0  0  0  0  0  0999 V2000
   -1.8733   -2.1367    2.2103 O   0  0  0  0  0  0  0  0  0  0  0  0
   -1.4487   -1.0740    1.3329 C   0  0  0  0  0  0  0  0  0  0  0  0
   -0.4522   -0.8127    1.6927 H   0  0  0  0  0  0  0  0  0  0  0  0
   -2.4147    0.1106    1.5192 C   0  0  0  0  0  0  0  0  0  0  0  0
   -3.4439   -0.2434    1.6668 H   0  0  0  0  0  0  0  0  0  0  0  0
   -2.0457    0.8023    2.7270 O   0  0  0  0  0  0  0  0  0  0  0  0
   -2.3570    1.0716    0.3205 C   0  0  0  0  0  0  0  0  0  0  0  0
   -1.3235    1.3842    0.1610 H   0  0  0  0  0  0  0  0  0  0  0  0
   -3.1122    2.3074    0.5671 N   0  0  0  0  0  0  0  0  0  0  0  0
   -2.8490    0.3609   -0.9519 C   0  0  0  0  0  0  0  0  0  0  0  0
   -2.6388   -1.1751   -0.9378 C   0  0  0  0  0  0  0  0  0  0  0  0
   -2.4922   -1.4872   -1.9835 H   0  0  0  0  0  0  0  0  0  0  0  0
   -3.8949   -1.8101   -0.5056 N   0  0  0  0  0  0  0  0  0  0  0  0
   -1.3871   -1.5887   -0.1179 C   0  0  0  0  0  0  0  0  0  0  0  0
   -1.3389   -2.6849   -0.0986 H   0  0  0  0  0  0  0  0  0  0  0  0
   -0.2966   -1.1925   -0.9689 O   0  0  0  0  0  0  0  0  0  0  0  0
    0.7986   -0.3995   -0.5271 C   0  0  0  0  0  0  0  0  0  0  0  0
    0.4794    0.3443    0.2000 H   0  0  0  0  0  0  0  0  0  0  0  0
    1.7992   -1.2270    0.0579 O   0  0  0  0  0  0  0  0  0  0  0  0
    3.0499   -0.5675    0.3720 C   0  0  0  0  0  0  0  0  0  0  0  0
    3.8269   -1.2088   -0.0785 H   0  0  0  0  0  0  0  0  0  0  0  0
    3.2999   -0.6064    1.8997 C   0  0  0  0  0  0  0  0  0  0  0  0
    2.3712    0.1835    2.7096 N   0  0  0  0  0  0  0  0  0  0  0  0
    3.1897    0.8469   -0.2272 C   0  0  0  0  0  0  0  0  0  0  0  0
    2.5755    1.5801    0.3116 H   0  0  0  0  0  0  0  0  0  0  0  0
    4.5361    1.3255   -0.1507 O   0  0  0  0  0  0  0  0  0  0  0  0
    2.7643    0.7758   -1.6880 C   0  0  0  0  0  0  0  0  0  0  0  0
    3.4214    0.0879   -2.2307 H   0  0  0  0  0  0  0  0  0  0  0  0
    2.9532    2.0562   -2.3245 O   0  0  0  0  0  0  0  0  0  0  0  0
    1.2995    0.3571   -1.8086 C   0  0  0  0  0  0  0  0  0  0  0  0
    0.6604    1.2424   -1.9209 H   0  0  0  0  0  0  0  0  0  0  0  0
    1.1183   -0.4156   -3.0688 N   0  0  0  0  0  0  0  0  0  0  0  0
   -1.9110   -1.7364    3.1028 H   0  0  0  0  0  0  0  0  0  0  0  0
   -2.8587    1.2715    2.9941 H   0  0  0  0  0  0  0  0  0  0  0  0
   -3.0762    2.8988   -0.2635 H   0  0  0  0  0  0  0  0  0  0  0  0
   -2.6392    2.8314    1.3063 H   0  0  0  0  0  0  0  0  0  0  0  0
   -3.9038    0.5927   -1.1365 H   0  0  0  0  0  0  0  0  0  0  0  0
   -2.3075    0.7779   -1.8075 H   0  0  0  0  0  0  0  0  0  0  0  0
   -3.6969   -2.7180   -0.0779 H   0  0  0  0  0  0  0  0  0  0  0  0
   -4.4695   -2.0221   -1.3227 H   0  0  0  0  0  0  0  0  0  0  0  0
    4.3144   -0.2528    2.1089 H   0  0  0  0  0  0  0  0  0  0  0  0
    3.2281   -1.6473    2.2414 H   0  0  0  0  0  0  0  0  0  0  0  0
    1.4091    0.0528    2.4164 H   0  0  0  0  0  0  0  0  0  0  0  0
    2.6139    1.1713    2.6868 H   0  0  0  0  0  0  0  0  0  0  0  0
    4.5626    2.0855   -0.7739 H   0  0  0  0  0  0  0  0  0  0  0  0
    2.8615    1.8809   -3.2840 H   0  0  0  0  0  0  0  0  0  0  0  0
    0.3053   -0.0393   -3.5610 H   0  0  0  0  0  0  0  0  0  0  0  0
    0.7930   -1.3533   -2.7890 H   0  0  0  0  0  0  0  0  0  0  0  0
  2  1  1  0  0  0  0
  2  3  1  0  0  0  0
  4  2  1  0  0  0  0
  4  5  1  0  0  0  0
  6  4  1  0  0  0  0
  7  4  1  0  0  0  0
  7  8  1  0  0  0  0
  9  7  1  0  0  0  0
 10  7  1  0  0  0  0
 11 10  1  0  0  0  0
 11 12  1  0  0  0  0
 13 11  1  0  0  0  0
 14 11  1  0  0  0  0
 14 15  1  0  0  0  0
 14  2  1  0  0  0  0
 16 14  1  0  0  0  0
 17 16  1  0  0  0  0
 17 18  1  0  0  0  0
 19 17  1  0  0  0  0
 20 19  1  0  0  0  0
 20 21  1  0  0  0  0
 22 20  1  0  0  0  0
 23 22  1  0  0  0  0
 24 20  1  0  0  0  0
 24 25  1  0  0  0  0
 26 24  1  0  0  0  0
 27 24  1  0  0  0  0
 27 28  1  0  0  0  0
 29 27  1  0  0  0  0
 30 27  1  0  0  0  0
 30 31  1  0  0  0  0
 30 17  1  0  0  0  0
 32 30  1  0  0  0  0
  1 33  1  0  0  0  0
  6 34  1  0  0  0  0
  9 35  1  0  0  0  0
  9 36  1  0  0  0  0
 10 37  1  0  0  0  0
 10 38  1  0  0  0  0
 13 39  1  0  0  0  0
 13 40  1  0  0  0  0
 22 41  1  0  0  0  0
 22 42  1  0  0  0  0
 23 43  1  0  0  0  0
 23 44  1  0  0  0  0
 26 45  1  0  0  0  0
 29 46  1  0  0  0  0
 32 47  1  0  0  0  0
 32 48  1  0  0  0  0
M  END
>  <energy>
75.99243970088196

$$$$
