2KXM_RIO_A_101
  1228              3D

 65 67  0  0  0  0  0  0  0  0999 V2000
    5.2632   -0.4270    4.4222 O   0  0  0  0  0  0  0  0  0  0  0  0
    5.4782   -1.8129    4.7829 C   0  0  0  0  0  0  0  0  0  0  0  0
    5.7639   -1.8827    6.2748 C   0  0  0  0  0  0  0  0  0  0  0  0
    5.5978   -0.8601    6.5885 H   0  0  0  0  0  0  0  0  0  0  0  0
    4.8827   -2.5978    7.1705 O   0  0  0  0  0  0  0  0  0  0  0  0
    5.5147   -2.2157    8.4340 C   0  0  0  0  0  0  0  0  0  0  0  0
    5.4788   -1.1143    8.4473 H   0  0  0  0  0  0  0  0  0  0  0  0
    4.9117   -2.6509    9.6717 O   0  0  0  0  0  0  0  0  0  0  0  0
    4.3014   -1.3565   10.2096 C   0  0  0  0  0  0  0  0  0  0  0  0
    3.5867   -1.9101    9.6013 H   0  0  0  0  0  0  0  0  0  0  0  0
    5.1180   -1.2485   11.4836 C   0  0  0  0  0  0  0  0  0  0  0  0
    4.7009   -1.8899   12.3333 H   0  0  0  0  0  0  0  0  0  0  0  0
    6.5038   -1.6705   11.3474 O   0  0  0  0  0  0  0  0  0  0  0  0
    5.0861    0.2957   11.8050 C   0  0  0  0  0  0  0  0  0  0  0  0
    5.1877    0.9399   10.8977 H   0  0  0  0  0  0  0  0  0  0  0  0
    6.1924    0.8010   12.6905 N   0  0  0  0  0  0  0  0  0  0  0  0
    3.7632    0.5280   12.4851 C   0  0  0  0  0  0  0  0  0  0  0  0
    2.5361    0.4734   11.4856 C   0  0  0  0  0  0  0  0  0  0  0  0
    2.1224    0.7954   12.4473 H   0  0  0  0  0  0  0  0  0  0  0  0
    1.0203    0.2446   11.5342 N   0  0  0  0  0  0  0  0  0  0  0  0
    2.8182   -0.7820   10.5487 C   0  0  0  0  0  0  0  0  0  0  0  0
    2.2641   -1.6608   10.9278 H   0  0  0  0  0  0  0  0  0  0  0  0
    2.2087   -0.4925    9.1766 O   0  0  0  0  0  0  0  0  0  0  0  0
    2.4344    0.8383    8.6623 C   0  0  0  0  0  0  0  0  0  0  0  0
    1.7182    1.3978    9.2586 H   0  0  0  0  0  0  0  0  0  0  0  0
    3.7243    1.4006    9.0129 O   0  0  0  0  0  0  0  0  0  0  0  0
    4.0825    2.5996    8.2992 C   0  0  0  0  0  0  0  0  0  0  0  0
    4.5128    2.1947    7.3769 H   0  0  0  0  0  0  0  0  0  0  0  0
    5.3099    3.2973    8.9228 C   0  0  0  0  0  0  0  0  0  0  0  0
    5.2465    4.7494    8.9688 N   0  0  0  0  0  0  0  0  0  0  0  0
    2.7908    3.3398    7.8858 C   0  0  0  0  0  0  0  0  0  0  0  0
    1.9920    3.2623    8.6487 H   0  0  0  0  0  0  0  0  0  0  0  0
    2.9308    4.7182    7.6536 O   0  0  0  0  0  0  0  0  0  0  0  0
    2.3871    2.5245    6.6535 C   0  0  0  0  0  0  0  0  0  0  0  0
    3.2573    2.4356    5.9971 H   0  0  0  0  0  0  0  0  0  0  0  0
    1.4034    3.1498    5.8507 O   0  0  0  0  0  0  0  0  0  0  0  0
    1.9472    1.1273    7.1648 C   0  0  0  0  0  0  0  0  0  0  0  0
    0.8538    1.1860    7.1934 H   0  0  0  0  0  0  0  0  0  0  0  0
    2.2966    0.1233    6.1915 N   0  0  0  0  0  0  0  0  0  0  0  0
    6.9825   -2.4899    8.2397 C   0  0  0  0  0  0  0  0  0  0  0  0
    7.2941   -3.4860    8.5481 H   0  0  0  0  0  0  0  0  0  0  0  0
    7.6825   -1.4975    8.9572 O   0  0  0  0  0  0  0  0  0  0  0  0
    7.1558   -2.2976    6.7283 C   0  0  0  0  0  0  0  0  0  0  0  0
    7.4975   -3.1914    6.2014 H   0  0  0  0  0  0  0  0  0  0  0  0
    8.0680   -1.2371    6.4632 O   0  0  0  0  0  0  0  0  0  0  0  0
    5.8795    0.1178    4.9488 H   0  0  0  0  0  0  0  0  0  0  0  0
    4.5774   -2.3390    4.4706 H   0  0  0  0  0  0  0  0  0  0  0  0
    6.3305   -2.1447    4.1726 H   0  0  0  0  0  0  0  0  0  0  0  0
    7.0207   -0.8920   11.0583 H   0  0  0  0  0  0  0  0  0  0  0  0
    5.9424    1.7372   13.0467 H   0  0  0  0  0  0  0  0  0  0  0  0
    6.9932    0.9935   12.1282 H   0  0  0  0  0  0  0  0  0  0  0  0
    3.6349   -0.1438   13.2722 H   0  0  0  0  0  0  0  0  0  0  0  0
    3.7791    1.5073   12.9666 H   0  0  0  0  0  0  0  0  0  0  0  0
    0.5596    1.1365   11.7505 H   0  0  0  0  0  0  0  0  0  0  0  0
    0.6778    0.0198   10.5909 H   0  0  0  0  0  0  0  0  0  0  0  0
    5.5508    2.9100    9.9149 H   0  0  0  0  0  0  0  0  0  0  0  0
    6.1674    3.0829    8.2737 H   0  0  0  0  0  0  0  0  0  0  0  0
    5.1070    5.0695    9.9283 H   0  0  0  0  0  0  0  0  0  0  0  0
    6.1375    5.1315    8.6692 H   0  0  0  0  0  0  0  0  0  0  0  0
    2.2436    5.1456    8.1965 H   0  0  0  0  0  0  0  0  0  0  0  0
    1.8762    3.4993    5.0563 H   0  0  0  0  0  0  0  0  0  0  0  0
    3.2830    0.0942    5.9472 H   0  0  0  0  0  0  0  0  0  0  0  0
    2.0068   -0.7985    6.4905 H   0  0  0  0  0  0  0  0  0  0  0  0
    8.2902   -1.9307    9.5770 H   0  0  0  0  0  0  0  0  0  0  0  0
    8.3179   -1.2915    5.5317 H   0  0  0  0  0  0  0  0  0  0  0  0
  1  2  1  0  0  0  0
  1 46  1  0  0  0  0
  2  3  1  0  0  0  0
  2 47  1  0  0  0  0
  2 48  1  0  0  0  0
  3  4  1  0  0  0  0
  3  5  1  0  0  0  0
  3 43  1  0  0  0  0
  5  6  1  0  0  0  0
  6 40  1  0  0  0  0
  6  8  1  0  0  0  0
  6  7  1  0  0  0  0
  9 11  1  0  0  0  0
  9 10  1  0  0  0  0
  9  8  1  0  0  0  0
 11 12  1  0  0  0  0
 11 13  1  0  0  0  0
 11 14  1  0  0  0  0
 13 49  1  0  0  0  0
 14 15  1  0  0  0  0
 14 16  1  0  0  0  0
 14 17  1  0  0  0  0
 16 50  1  0  0  0  0
 16 51  1  0  0  0  0
 17 18  1  0  0  0  0
 17 52  1  0  0  0  0
 17 53  1  0  0  0  0
 18 19  1  0  0  0  0
 18 20  1  0  0  0  0
 18 21  1  0  0  0  0
 20 54  1  0  0  0  0
 20 55  1  0  0  0  0
 21  9  1  0  0  0  0
 21 23  1  0  0  0  0
 21 22  1  0  0  0  0
 23 24  1  0  0  0  0
 24 25  1  0  0  0  0
 24 26  1  0  0  0  0
 24 37  1  0  0  0  0
 26 27  1  0  0  0  0
 27 28  1  0  0  0  0
 27 29  1  0  0  0  0
 27 31  1  0  0  0  0
 29 30  1  0  0  0  0
 29 56  1  0  0  0  0
 29 57  1  0  0  0  0
 30 58  1  0  0  0  0
 30 59  1  0  0  0  0
 31 33  1  0  0  0  0
 31 32  1  0  0  0  0
 33 60  1  0  0  0  0
 34 31  1  0  0  0  0
 34 35  1  0  0  0  0
 34 36  1  0  0  0  0
 36 61  1  0  0  0  0
 37 34  1  0  0  0  0
 37 39  1  0  0  0  0
 37 38  1  0  0  0  0
 39 62  1  0  0  0  0
 39 63  1  0  0  0  0
 40 41  1  0  0  0  0
 40 42  1  0  0  0  0
 40 43  1  0  0  0  0
 42 64  1  0  0  0  0
 43 44  1  0  0  0  0
 43 45  1  0  0  0  0
 45 65  1  0  0  0  0
M  END
>  <energy>
378.60164196995635

$$$$
