4LX5_29G_A_501
  1228              3D

 18 19  0  0  0  0  0  0  0  0999 V2000
   -0.4072   -2.5420   -0.0362 N   0  0  0  0  0  0  0  0  0  0  0  0
    0.1002   -1.2319    0.1210 C   0  0  0  0  0  0  0  0  0  0  0  0
    1.3845   -1.0811    0.5061 N   0  0  0  0  0  0  0  0  0  0  0  0
    1.8450    0.1762    0.6583 C   0  0  0  0  0  0  0  0  0  0  0  0
    1.0989    1.2816    0.4299 N   0  0  0  0  0  0  0  0  0  0  0  0
   -0.1745    1.1471    0.0490 C   0  0  0  0  0  0  0  0  0  0  0  0
   -0.7264   -0.1209   -0.1231 C   0  0  0  0  0  0  0  0  0  0  0  0
   -2.0685   -0.1696   -0.5241 C   0  0  0  0  0  0  0  0  0  0  0  0
   -2.8319    0.9160   -0.7339 N   0  0  0  0  0  0  0  0  0  0  0  0
   -2.1962    2.0773   -0.5365 C   0  0  0  0  0  0  0  0  0  0  0  0
   -0.9108    2.2438   -0.1642 N   0  0  0  0  0  0  0  0  0  0  0  0
    3.1773    0.3501    1.0816 N   0  0  0  0  0  0  0  0  0  0  0  0
   -1.2447   -2.6771    0.5264 H   0  0  0  0  0  0  0  0  0  0  0  0
    0.2953   -3.2214    0.2488 H   0  0  0  0  0  0  0  0  0  0  0  0
   -2.5835   -1.1124   -0.6823 H   0  0  0  0  0  0  0  0  0  0  0  0
   -2.7724    2.9804   -0.6951 H   0  0  0  0  0  0  0  0  0  0  0  0
    3.3151   -0.0819    1.9927 H   0  0  0  0  0  0  0  0  0  0  0  0
    3.4034    1.3406    1.1394 H   0  0  0  0  0  0  0  0  0  0  0  0
  2  1  1  0  0  0  0
  3  2  2  0  0  0  0
  4  3  1  0  0  0  0
  5  4  2  0  0  0  0
  6  5  1  0  0  0  0
  7  6  2  0  0  0  0
  7  2  1  0  0  0  0
  8  7  1  0  0  0  0
  9  8  2  0  0  0  0
 10  9  1  0  0  0  0
 11 10  2  0  0  0  0
 11  6  1  0  0  0  0
 12  4  1  0  0  0  0
  1 13  1  0  0  0  0
  1 14  1  0  0  0  0
  8 15  1  0  0  0  0
 10 16  1  0  0  0  0
 12 17  1  0  0  0  0
 12 18  1  0  0  0  0
M  END
>  <energy>
46.229110604221333

$$$$
