2O3X_N30_B_1
  1228              3D

 65 67  0  0  0  0  0  0  0  0999 V2000
    2.5819   -1.3773   -0.3644 C   0  0  0  0  0  0  0  0  0  0  0  0
    1.5393   -1.4464   -0.6914 H   0  0  0  0  0  0  0  0  0  0  0  0
    2.7960    0.0105   -0.0914 O   0  0  0  0  0  0  0  0  0  0  0  0
    2.8340    0.5061    1.2491 C   0  0  0  0  0  0  0  0  0  0  0  0
    3.1862   -0.2786    1.9243 H   0  0  0  0  0  0  0  0  0  0  0  0
    1.3880    0.8984    1.6559 C   0  0  0  0  0  0  0  0  0  0  0  0
    0.6911    0.3551    1.0055 H   0  0  0  0  0  0  0  0  0  0  0  0
    1.0268    2.3802    1.5401 C   0  0  0  0  0  0  0  0  0  0  0  0
    2.1322    3.3352    1.9885 C   0  0  0  0  0  0  0  0  0  0  0  0
    1.8135    4.3661    1.7685 H   0  0  0  0  0  0  0  0  0  0  0  0
    2.3698    3.2787    3.4334 N   0  0  0  0  0  0  0  0  0  0  0  0
    3.4001    3.0646    1.1906 C   0  0  0  0  0  0  0  0  0  0  0  0
    4.1568    3.7774    1.5249 H   0  0  0  0  0  0  0  0  0  0  0  0
    3.9337    1.6279    1.2606 C   0  0  0  0  0  0  0  0  0  0  0  0
    4.5954    1.4208    0.4076 H   0  0  0  0  0  0  0  0  0  0  0  0
    4.7594    1.4312    2.4275 O   0  0  0  0  0  0  0  0  0  0  0  0
    6.0131    2.1291    2.4205 C   0  0  0  0  0  0  0  0  0  0  0  0
    5.9844    2.7951    3.2901 H   0  0  0  0  0  0  0  0  0  0  0  0
    7.2105    1.1908    2.4581 C   0  0  0  0  0  0  0  0  0  0  0  0
    7.1574    0.4713    1.6329 H   0  0  0  0  0  0  0  0  0  0  0  0
    7.3457    0.4567    3.6583 O   0  0  0  0  0  0  0  0  0  0  0  0
    8.3746    2.1620    2.2266 C   0  0  0  0  0  0  0  0  0  0  0  0
    9.2387    1.6558    1.7910 H   0  0  0  0  0  0  0  0  0  0  0  0
    8.8115    2.7487    3.4592 O   0  0  0  0  0  0  0  0  0  0  0  0
    7.7496    3.2596    1.3564 C   0  0  0  0  0  0  0  0  0  0  0  0
    7.8305    4.2411    1.8529 H   0  0  0  0  0  0  0  0  0  0  0  0
    6.3385    2.9425    1.2726 O   0  0  0  0  0  0  0  0  0  0  0  0
    8.3618    3.3932   -0.0407 C   0  0  0  0  0  0  0  0  0  0  0  0
    8.2731    2.2025   -0.8748 N   0  0  0  0  0  0  0  0  0  0  0  0
    3.1214    3.3705   -0.1794 O   0  0  0  0  0  0  0  0  0  0  0  0
    1.0887    0.4604    3.0235 N   0  0  0  0  0  0  0  0  0  0  0  0
    2.8090   -2.5135    0.6610 C   0  0  0  0  0  0  0  0  0  0  0  0
    2.5432   -3.4501    0.1384 H   0  0  0  0  0  0  0  0  0  0  0  0
    1.9225   -2.4520    1.8120 N   0  0  0  0  0  0  0  0  0  0  0  0
    4.2904   -2.6356    1.0363 C   0  0  0  0  0  0  0  0  0  0  0  0
    4.6466   -1.7577    1.5848 H   0  0  0  0  0  0  0  0  0  0  0  0
    4.5052   -3.7748    1.8656 O   0  0  0  0  0  0  0  0  0  0  0  0
    5.1194   -2.8072   -0.2457 C   0  0  0  0  0  0  0  0  0  0  0  0
    4.9249   -3.8000   -0.6711 H   0  0  0  0  0  0  0  0  0  0  0  0
    6.5103   -2.7711    0.0819 O   0  0  0  0  0  0  0  0  0  0  0  0
    4.7836   -1.7039   -1.2585 C   0  0  0  0  0  0  0  0  0  0  0  0
    5.0513   -0.7122   -0.8732 H   0  0  0  0  0  0  0  0  0  0  0  0
    3.3695   -1.7308   -1.5323 O   0  0  0  0  0  0  0  0  0  0  0  0
    5.5212   -1.9303   -2.5710 C   0  0  0  0  0  0  0  0  0  0  0  0
    5.1865   -0.8944   -3.4789 O   0  0  0  0  0  0  0  0  0  0  0  0
    0.1006    2.6073    2.0884 H   0  0  0  0  0  0  0  0  0  0  0  0
    0.8052    2.6094    0.4908 H   0  0  0  0  0  0  0  0  0  0  0  0
    1.4725    3.2467    3.9188 H   0  0  0  0  0  0  0  0  0  0  0  0
    2.8527    2.4094    3.6664 H   0  0  0  0  0  0  0  0  0  0  0  0
    6.9905    0.9932    4.3808 H   0  0  0  0  0  0  0  0  0  0  0  0
    8.0398    2.8688    4.0392 H   0  0  0  0  0  0  0  0  0  0  0  0
    7.8719    4.2231   -0.5617 H   0  0  0  0  0  0  0  0  0  0  0  0
    9.4184    3.6787    0.0622 H   0  0  0  0  0  0  0  0  0  0  0  0
    7.4645    1.6375   -0.6158 H   0  0  0  0  0  0  0  0  0  0  0  0
    9.0955    1.6216   -0.7410 H   0  0  0  0  0  0  0  0  0  0  0  0
    3.7277    4.0767   -0.4504 H   0  0  0  0  0  0  0  0  0  0  0  0
    1.9497    0.3299    3.5461 H   0  0  0  0  0  0  0  0  0  0  0  0
    0.6337   -0.4507    2.9853 H   0  0  0  0  0  0  0  0  0  0  0  0
    2.2762   -3.0652    2.5421 H   0  0  0  0  0  0  0  0  0  0  0  0
    1.0127   -2.8343    1.5438 H   0  0  0  0  0  0  0  0  0  0  0  0
    4.4267   -3.4828    2.7866 H   0  0  0  0  0  0  0  0  0  0  0  0
    6.6511   -2.0036    0.6618 H   0  0  0  0  0  0  0  0  0  0  0  0
    5.2254   -2.8826   -3.0151 H   0  0  0  0  0  0  0  0  0  0  0  0
    6.6055   -1.9297   -2.4268 H   0  0  0  0  0  0  0  0  0  0  0  0
    5.7072   -0.1113   -3.2326 H   0  0  0  0  0  0  0  0  0  0  0  0
  1  2  1  0  0  0  0
  3  1  1  0  0  0  0
  4  3  1  0  0  0  0
  4  5  1  0  0  0  0
  6  4  1  0  0  0  0
  6  7  1  0  0  0  0
  8  6  1  0  0  0  0
  9  8  1  0  0  0  0
  9 10  1  0  0  0  0
 11  9  1  0  0  0  0
 12  9  1  0  0  0  0
 12 13  1  0  0  0  0
 14 12  1  0  0  0  0
 14 15  1  0  0  0  0
 14  4  1  0  0  0  0
 16 14  1  0  0  0  0
 17 16  1  0  0  0  0
 17 18  1  0  0  0  0
 19 17  1  0  0  0  0
 19 20  1  0  0  0  0
 21 19  1  0  0  0  0
 22 19  1  0  0  0  0
 22 23  1  0  0  0  0
 24 22  1  0  0  0  0
 25 22  1  0  0  0  0
 25 26  1  0  0  0  0
 27 25  1  0  0  0  0
 27 17  1  0  0  0  0
 28 25  1  0  0  0  0
 29 28  1  0  0  0  0
 30 12  1  0  0  0  0
 31  6  1  0  0  0  0
 32  1  1  0  0  0  0
 32 33  1  0  0  0  0
 34 32  1  0  0  0  0
 35 32  1  0  0  0  0
 35 36  1  0  0  0  0
 37 35  1  0  0  0  0
 38 35  1  0  0  0  0
 38 39  1  0  0  0  0
 40 38  1  0  0  0  0
 41 38  1  0  0  0  0
 41 42  1  0  0  0  0
 43 41  1  0  0  0  0
 43  1  1  0  0  0  0
 44 41  1  0  0  0  0
 45 44  1  0  0  0  0
  8 46  1  0  0  0  0
  8 47  1  0  0  0  0
 11 48  1  0  0  0  0
 11 49  1  0  0  0  0
 21 50  1  0  0  0  0
 24 51  1  0  0  0  0
 28 52  1  0  0  0  0
 28 53  1  0  0  0  0
 29 54  1  0  0  0  0
 29 55  1  0  0  0  0
 30 56  1  0  0  0  0
 31 57  1  0  0  0  0
 31 58  1  0  0  0  0
 34 59  1  0  0  0  0
 34 60  1  0  0  0  0
 37 61  1  0  0  0  0
 40 62  1  0  0  0  0
 44 63  1  0  0  0  0
 44 64  1  0  0  0  0
 45 65  1  0  0  0  0
M  END
>  <energy>
110.87670925332885

$$$$
