4LVX_H4B_A_101
  1228              3D

 32 33  0  0  0  0  0  0  0  0999 V2000
   -2.0091   -1.4115   -0.8824 N   0  0  0  0  0  0  0  0  0  0  0  0
   -2.7754   -2.0013   -0.0091 C   0  0  0  0  0  0  0  0  0  0  0  0
   -3.5883   -3.0643   -0.3486 N   0  0  0  0  0  0  0  0  0  0  0  0
   -2.8854   -1.5404    1.2947 N   0  0  0  0  0  0  0  0  0  0  0  0
   -3.4751   -2.0599    1.9418 H   0  0  0  0  0  0  0  0  0  0  0  0
   -2.0584   -0.5678    1.8253 C   0  0  0  0  0  0  0  0  0  0  0  0
   -2.0190   -0.2686    3.0151 O   0  0  0  0  0  0  0  0  0  0  0  0
   -1.1432    0.0491    0.8159 C   0  0  0  0  0  0  0  0  0  0  0  0
   -1.3101   -0.2799   -0.4894 C   0  0  0  0  0  0  0  0  0  0  0  0
   -0.4755    0.3788   -1.4104 N   0  0  0  0  0  0  0  0  0  0  0  0
    0.0458    1.6945   -1.0550 C   0  0  0  0  0  0  0  0  0  0  0  0
    0.6957    1.6506    0.3443 C   0  0  0  0  0  0  0  0  0  0  0  0
    0.8731    2.6930    0.6353 H   0  0  0  0  0  0  0  0  0  0  0  0
   -0.3323    1.0945    1.2626 N   0  0  0  0  0  0  0  0  0  0  0  0
    2.0225    0.8728    0.5950 C   0  0  0  0  0  0  0  0  0  0  0  0
    2.3005    1.1547    1.6234 H   0  0  0  0  0  0  0  0  0  0  0  0
    1.7807   -0.5346    0.6736 O   0  0  0  0  0  0  0  0  0  0  0  0
    3.3024    1.1728   -0.2237 C   0  0  0  0  0  0  0  0  0  0  0  0
    3.8966    1.9198    0.3162 H   0  0  0  0  0  0  0  0  0  0  0  0
    3.1380    1.6479   -1.6520 C   0  0  0  0  0  0  0  0  0  0  0  0
    4.1239   -0.0032   -0.2887 O   0  0  0  0  0  0  0  0  0  0  0  0
   -3.2316   -3.5939   -1.1430 H   0  0  0  0  0  0  0  0  0  0  0  0
   -4.5456   -2.7843   -0.5636 H   0  0  0  0  0  0  0  0  0  0  0  0
   -0.9316    0.3877   -2.3240 H   0  0  0  0  0  0  0  0  0  0  0  0
    0.6984    2.0584   -1.8400 H   0  0  0  0  0  0  0  0  0  0  0  0
   -0.7993    2.3993   -1.0436 H   0  0  0  0  0  0  0  0  0  0  0  0
   -0.8922    1.8275    1.6938 H   0  0  0  0  0  0  0  0  0  0  0  0
    2.2189   -0.9709   -0.0740 H   0  0  0  0  0  0  0  0  0  0  0  0
    2.6924    2.6455   -1.6828 H   0  0  0  0  0  0  0  0  0  0  0  0
    2.5458    0.9416   -2.2431 H   0  0  0  0  0  0  0  0  0  0  0  0
    4.1126    1.7374   -2.1388 H   0  0  0  0  0  0  0  0  0  0  0  0
    4.1950   -0.3718    0.6082 H   0  0  0  0  0  0  0  0  0  0  0  0
  2  1  2  0  0  0  0
  3  2  1  0  0  0  0
  4  2  1  0  0  0  0
  4  5  1  0  0  0  0
  6  4  1  0  0  0  0
  7  6  2  0  0  0  0
  8  6  1  0  0  0  0
  9  8  2  0  0  0  0
  9  1  1  0  0  0  0
 10  9  1  0  0  0  0
 11 10  1  0  0  0  0
 12 11  1  0  0  0  0
 12 13  1  0  0  0  0
 14 12  1  0  0  0  0
 14  8  1  0  0  0  0
 15 12  1  0  0  0  0
 15 16  1  0  0  0  0
 17 15  1  0  0  0  0
 18 15  1  0  0  0  0
 18 19  1  0  0  0  0
 20 18  1  0  0  0  0
 21 18  1  0  0  0  0
  3 22  1  0  0  0  0
  3 23  1  0  0  0  0
 10 24  1  0  0  0  0
 11 25  1  0  0  0  0
 11 26  1  0  0  0  0
 14 27  1  0  0  0  0
 17 28  1  0  0  0  0
 20 29  1  0  0  0  0
 20 30  1  0  0  0  0
 20 31  1  0  0  0  0
 21 32  1  0  0  0  0
M  END
>  <energy>
78.114685780693293

$$$$
