1YRJ_AM2_A_151
  1228              3D

 78 81  0  0  0  0  0  0  0  0999 V2000
    2.5785   -0.6546   -1.3941 C   0  0  0  0  0  0  0  0  0  0  0  0
    3.5895   -0.9975   -1.1923 H   0  0  0  0  0  0  0  0  0  0  0  0
    1.7786   -0.7787   -0.0374 C   0  0  0  0  0  0  0  0  0  0  0  0
    2.5436   -1.0362    0.7158 H   0  0  0  0  0  0  0  0  0  0  0  0
    1.1116    0.4877    0.5347 C   0  0  0  0  0  0  0  0  0  0  0  0
    0.9817    1.6990   -0.3889 C   0  0  0  0  0  0  0  0  0  0  0  0
    1.4635    2.5835    0.0730 H   0  0  0  0  0  0  0  0  0  0  0  0
    1.5090    1.4327   -1.7833 C   0  0  0  0  0  0  0  0  0  0  0  0
    0.8016    0.7903   -2.3324 H   0  0  0  0  0  0  0  0  0  0  0  0
    1.5075    2.7512   -2.5692 C   0  0  0  0  0  0  0  0  0  0  0  0
    1.8709    2.4972   -3.5685 H   0  0  0  0  0  0  0  0  0  0  0  0
    0.1008    3.4143   -2.5222 C   0  0  0  0  0  0  0  0  0  0  0  0
   -0.4567    2.8463   -3.2765 H   0  0  0  0  0  0  0  0  0  0  0  0
   -0.6982    3.2164   -1.1709 C   0  0  0  0  0  0  0  0  0  0  0  0
   -0.4900    3.9846   -0.3938 H   0  0  0  0  0  0  0  0  0  0  0  0
   -0.4034    1.9636   -0.5454 O   0  0  0  0  0  0  0  0  0  0  0  0
   -2.1222    3.3509   -1.4943 O   0  0  0  0  0  0  0  0  0  0  0  0
   -2.9242    2.1653   -1.5210 C   0  0  0  0  0  0  0  0  0  0  0  0
   -2.3207    1.3132   -1.2017 H   0  0  0  0  0  0  0  0  0  0  0  0
   -3.5556    1.8684   -2.8985 C   0  0  0  0  0  0  0  0  0  0  0  0
   -2.8166    2.0127   -3.6915 H   0  0  0  0  0  0  0  0  0  0  0  0
   -4.0989    0.4158   -2.8794 C   0  0  0  0  0  0  0  0  0  0  0  0
   -4.9482    0.2456   -3.5764 H   0  0  0  0  0  0  0  0  0  0  0  0
   -4.4925   -0.0415   -1.4377 C   0  0  0  0  0  0  0  0  0  0  0  0
   -3.6715   -0.6206   -1.0057 H   0  0  0  0  0  0  0  0  0  0  0  0
   -4.8156    1.1147   -0.4524 C   0  0  0  0  0  0  0  0  0  0  0  0
   -5.8636    1.4301   -0.5418 H   0  0  0  0  0  0  0  0  0  0  0  0
   -4.5676    0.6719    0.9926 C   0  0  0  0  0  0  0  0  0  0  0  0
   -5.0618    1.6613    1.8879 O   0  0  0  0  0  0  0  0  0  0  0  0
   -4.0182    2.2971   -0.6094 O   0  0  0  0  0  0  0  0  0  0  0  0
   -5.6303   -0.9642   -1.5352 N   0  0  0  0  0  0  0  0  0  0  0  0
   -3.0481   -0.4300   -3.3670 O   0  0  0  0  0  0  0  0  0  0  0  0
   -4.6432    2.7526   -3.1434 O   0  0  0  0  0  0  0  0  0  0  0  0
    0.1228    4.8355   -2.9491 N   0  0  0  0  0  0  0  0  0  0  0  0
   -1.2122    5.3126   -3.3172 C   0  0  0  0  0  0  0  0  0  0  0  0
    2.4542    3.6943   -2.0846 O   0  0  0  0  0  0  0  0  0  0  0  0
    2.7682    0.7691   -1.7082 O   0  0  0  0  0  0  0  0  0  0  0  0
    0.7772   -1.8349    0.0520 N   0  0  0  0  0  0  0  0  0  0  0  0
    2.0225   -1.4110   -2.4993 O   0  0  0  0  0  0  0  0  0  0  0  0
    2.5270   -2.7480   -2.8741 C   0  0  0  0  0  0  0  0  0  0  0  0
    2.2302   -2.7755   -3.9244 H   0  0  0  0  0  0  0  0  0  0  0  0
    4.0454   -3.0054   -2.7428 C   0  0  0  0  0  0  0  0  0  0  0  0
    4.3911   -2.6643   -1.7756 H   0  0  0  0  0  0  0  0  0  0  0  0
    4.4612   -4.5128   -2.8077 C   0  0  0  0  0  0  0  0  0  0  0  0
    4.2734   -5.0008   -3.7565 H   0  0  0  0  0  0  0  0  0  0  0  0
    3.8070   -5.2510   -1.6108 C   0  0  0  0  0  0  0  0  0  0  0  0
    4.4901   -5.1385   -0.7477 H   0  0  0  0  0  0  0  0  0  0  0  0
    2.4655   -4.6787   -1.1623 C   0  0  0  0  0  0  0  0  0  0  0  0
    1.6995   -3.7753   -2.1093 C   0  0  0  0  0  0  0  0  0  0  0  0
    1.1210   -3.1736   -1.4543 H   0  0  0  0  0  0  0  0  0  0  0  0
    0.5858   -4.3562   -2.8687 N   0  0  0  0  0  0  0  0  0  0  0  0
    3.5797   -6.6814   -1.7990 N   0  0  0  0  0  0  0  0  0  0  0  0
    5.9024   -4.5663   -2.5640 O   0  0  0  0  0  0  0  0  0  0  0  0
    4.7236   -2.2209   -3.7227 O   0  0  0  0  0  0  0  0  0  0  0  0
    1.6726    0.8021    1.4210 H   0  0  0  0  0  0  0  0  0  0  0  0
    0.1071    0.2641    0.9513 H   0  0  0  0  0  0  0  0  0  0  0  0
   -3.4952    0.5531    1.1765 H   0  0  0  0  0  0  0  0  0  0  0  0
   -5.0536   -0.2759    1.2300 H   0  0  0  0  0  0  0  0  0  0  0  0
   -4.3588    2.3230    1.9901 H   0  0  0  0  0  0  0  0  0  0  0  0
   -6.2291   -0.9447   -0.7080 H   0  0  0  0  0  0  0  0  0  0  0  0
   -5.2562   -1.9155   -1.5751 H   0  0  0  0  0  0  0  0  0  0  0  0
   -2.2283   -0.2531   -2.8329 H   0  0  0  0  0  0  0  0  0  0  0  0
   -4.3056    3.6390   -3.3526 H   0  0  0  0  0  0  0  0  0  0  0  0
    0.7205    4.9263   -3.7741 H   0  0  0  0  0  0  0  0  0  0  0  0
   -1.1849    5.9282   -4.2246 H   0  0  0  0  0  0  0  0  0  0  0  0
   -1.6316    5.9304   -2.5107 H   0  0  0  0  0  0  0  0  0  0  0  0
   -1.9164    4.4972   -3.5346 H   0  0  0  0  0  0  0  0  0  0  0  0
    2.9608    3.3008   -1.3765 H   0  0  0  0  0  0  0  0  0  0  0  0
    0.7690   -2.2177    0.9844 H   0  0  0  0  0  0  0  0  0  0  0  0
   -0.1687   -1.5266   -0.1642 H   0  0  0  0  0  0  0  0  0  0  0  0
    1.8114   -5.4451   -0.7411 H   0  0  0  0  0  0  0  0  0  0  0  0
    2.7237   -4.0346   -0.3008 H   0  0  0  0  0  0  0  0  0  0  0  0
    0.0298   -4.9004   -2.2206 H   0  0  0  0  0  0  0  0  0  0  0  0
   -0.0216   -3.5410   -3.0571 H   0  0  0  0  0  0  0  0  0  0  0  0
    3.2472   -7.0964   -0.9343 H   0  0  0  0  0  0  0  0  0  0  0  0
    4.4066   -7.1746   -2.0792 H   0  0  0  0  0  0  0  0  0  0  0  0
    6.3420   -4.5399   -3.4370 H   0  0  0  0  0  0  0  0  0  0  0  0
    5.6198   -2.5664   -3.8350 H   0  0  0  0  0  0  0  0  0  0  0  0
  1  2  1  0  0  0  0
  3  1  1  0  0  0  0
  3  4  1  0  0  0  0
  5  3  1  0  0  0  0
  6  5  1  0  0  0  0
  6  7  1  0  0  0  0
  8  6  1  0  0  0  0
  8  9  1  0  0  0  0
 10  8  1  0  0  0  0
 10 11  1  0  0  0  0
 12 10  1  0  0  0  0
 12 13  1  0  0  0  0
 14 12  1  0  0  0  0
 14 15  1  0  0  0  0
 16 14  1  0  0  0  0
 16  6  1  0  0  0  0
 17 14  1  0  0  0  0
 18 17  1  0  0  0  0
 18 19  1  0  0  0  0
 20 18  1  0  0  0  0
 20 21  1  0  0  0  0
 22 20  1  0  0  0  0
 22 23  1  0  0  0  0
 24 22  1  0  0  0  0
 24 25  1  0  0  0  0
 26 24  1  0  0  0  0
 26 27  1  0  0  0  0
 28 26  1  0  0  0  0
 29 28  1  0  0  0  0
 30 26  1  0  0  0  0
 30 18  1  0  0  0  0
 31 24  1  0  0  0  0
 32 22  1  0  0  0  0
 33 20  1  0  0  0  0
 34 12  1  0  0  0  0
 35 34  1  0  0  0  0
 36 10  1  0  0  0  0
 37  8  1  0  0  0  0
 37  1  1  0  0  0  0
 38  3  1  0  0  0  0
 39  1  1  0  0  0  0
 40 39  1  0  0  0  0
 40 41  1  0  0  0  0
 42 40  1  0  0  0  0
 42 43  1  0  0  0  0
 44 42  1  0  0  0  0
 44 45  1  0  0  0  0
 46 44  1  0  0  0  0
 46 47  1  0  0  0  0
 48 46  1  0  0  0  0
 49 48  1  0  0  0  0
 49 50  1  0  0  0  0
 49 40  1  0  0  0  0
 51 49  1  0  0  0  0
 52 46  1  0  0  0  0
 53 44  1  0  0  0  0
 54 42  1  0  0  0  0
  5 55  1  0  0  0  0
  5 56  1  0  0  0  0
 28 57  1  0  0  0  0
 28 58  1  0  0  0  0
 29 59  1  0  0  0  0
 31 60  1  0  0  0  0
 31 61  1  0  0  0  0
 32 62  1  0  0  0  0
 33 63  1  0  0  0  0
 34 64  1  0  0  0  0
 35 65  1  0  0  0  0
 35 66  1  0  0  0  0
 35 67  1  0  0  0  0
 36 68  1  0  0  0  0
 38 69  1  0  0  0  0
 38 70  1  0  0  0  0
 48 71  1  0  0  0  0
 48 72  1  0  0  0  0
 51 73  1  0  0  0  0
 51 74  1  0  0  0  0
 52 75  1  0  0  0  0
 52 76  1  0  0  0  0
 53 77  1  0  0  0  0
 54 78  1  0  0  0  0
M  END
>  <energy>
184.04134810578296

$$$$
