3TZR_SS0_A_75
  1228              3D

 53 55  0  0  0  0  0  0  0  0999 V2000
    5.2817    0.3065    1.3480 C   0  0  0  0  0  0  0  0  0  0  0  0
    4.9481   -1.1062    1.4824 N   0  0  0  0  0  0  0  0  0  0  0  0
    3.5899   -1.3259    1.9881 C   0  0  0  0  0  0  0  0  0  0  0  0
    2.4632   -0.6798    1.1630 C   0  0  0  0  0  0  0  0  0  0  0  0
    1.1502   -1.4585    1.3102 C   0  0  0  0  0  0  0  0  0  0  0  0
    0.8182   -2.2918    0.1571 N   0  0  0  0  0  0  0  0  0  0  0  0
    0.4968   -1.8275   -1.1124 C   0  0  0  0  0  0  0  0  0  0  0  0
    0.5940   -2.9684   -1.9162 C   0  0  0  0  0  0  0  0  0  0  0  0
    1.0818   -4.0335   -1.2112 N   0  0  0  0  0  0  0  0  0  0  0  0
    1.1668   -3.6289    0.0357 C   0  0  0  0  0  0  0  0  0  0  0  0
    1.3379   -4.4125    1.1321 N   0  0  0  0  0  0  0  0  0  0  0  0
    0.2795   -2.9117   -3.2846 C   0  0  0  0  0  0  0  0  0  0  0  0
   -0.2406   -1.7288   -3.8023 C   0  0  0  0  0  0  0  0  0  0  0  0
   -0.4261   -0.6324   -2.9645 C   0  0  0  0  0  0  0  0  0  0  0  0
   -0.9992    0.4997   -3.5014 O   0  0  0  0  0  0  0  0  0  0  0  0
   -1.9969    1.0343   -2.6150 C   0  0  0  0  0  0  0  0  0  0  0  0
   -1.5177    1.2760   -1.1643 C   0  0  0  0  0  0  0  0  0  0  0  0
   -1.4513    2.3648   -1.0268 H   0  0  0  0  0  0  0  0  0  0  0  0
   -0.1087    0.7196   -0.9272 C   0  0  0  0  0  0  0  0  0  0  0  0
    0.0183   -0.6054   -1.6250 C   0  0  0  0  0  0  0  0  0  0  0  0
   -2.5163    0.7050   -0.1236 C   0  0  0  0  0  0  0  0  0  0  0  0
   -3.1331    1.7741    0.6783 N   0  0  0  0  0  0  0  0  0  0  0  0
   -4.4363    1.3392    1.1857 C   0  0  0  0  0  0  0  0  0  0  0  0
   -2.2608    2.1355    1.8001 C   0  0  0  0  0  0  0  0  0  0  0  0
    5.2124   -1.8696    0.2668 C   0  0  0  0  0  0  0  0  0  0  0  0
    4.9816    0.8613    2.2435 H   0  0  0  0  0  0  0  0  0  0  0  0
    6.3643    0.4385    1.2419 H   0  0  0  0  0  0  0  0  0  0  0  0
    4.8011    0.7718    0.4796 H   0  0  0  0  0  0  0  0  0  0  0  0
    3.5316   -0.9595    3.0225 H   0  0  0  0  0  0  0  0  0  0  0  0
    3.4219   -2.4051    2.0600 H   0  0  0  0  0  0  0  0  0  0  0  0
    2.3144    0.3467    1.5251 H   0  0  0  0  0  0  0  0  0  0  0  0
    2.7417   -0.5845    0.1055 H   0  0  0  0  0  0  0  0  0  0  0  0
    0.2968   -0.8010    1.4937 H   0  0  0  0  0  0  0  0  0  0  0  0
    1.1710   -2.0980    2.1961 H   0  0  0  0  0  0  0  0  0  0  0  0
    1.6839   -5.3534    0.9510 H   0  0  0  0  0  0  0  0  0  0  0  0
    1.8664   -4.0248    1.9089 H   0  0  0  0  0  0  0  0  0  0  0  0
    0.3993   -3.7873   -3.9145 H   0  0  0  0  0  0  0  0  0  0  0  0
   -0.5419   -1.6882   -4.8453 H   0  0  0  0  0  0  0  0  0  0  0  0
   -2.3112    1.9934   -3.0454 H   0  0  0  0  0  0  0  0  0  0  0  0
   -2.8776    0.3825   -2.6662 H   0  0  0  0  0  0  0  0  0  0  0  0
    0.1097    0.6755    0.1362 H   0  0  0  0  0  0  0  0  0  0  0  0
    0.6371    1.3953   -1.3687 H   0  0  0  0  0  0  0  0  0  0  0  0
   -3.2925    0.1189   -0.6287 H   0  0  0  0  0  0  0  0  0  0  0  0
   -2.0200   -0.0171    0.5383 H   0  0  0  0  0  0  0  0  0  0  0  0
   -4.3622    0.3884    1.7277 H   0  0  0  0  0  0  0  0  0  0  0  0
   -5.1470    1.2144    0.3610 H   0  0  0  0  0  0  0  0  0  0  0  0
   -4.8657    2.0849    1.8648 H   0  0  0  0  0  0  0  0  0  0  0  0
   -1.2708    2.4319    1.4394 H   0  0  0  0  0  0  0  0  0  0  0  0
   -2.1388    1.3000    2.4990 H   0  0  0  0  0  0  0  0  0  0  0  0
   -2.6637    2.9920    2.3513 H   0  0  0  0  0  0  0  0  0  0  0  0
    4.9604   -2.9275    0.4124 H   0  0  0  0  0  0  0  0  0  0  0  0
    6.2742   -1.8311    0.0026 H   0  0  0  0  0  0  0  0  0  0  0  0
    4.6385   -1.5067   -0.5916 H   0  0  0  0  0  0  0  0  0  0  0  0
  2  1  1  0  0  0  0
  3  2  1  0  0  0  0
  4  3  1  0  0  0  0
  5  4  1  0  0  0  0
  6  5  1  0  0  0  0
  7  6  1  0  0  0  0
  8  7  2  0  0  0  0
  9  8  1  0  0  0  0
 10  9  2  0  0  0  0
 10  6  1  0  0  0  0
 11 10  1  0  0  0  0
 12  8  1  0  0  0  0
 13 12  2  0  0  0  0
 14 13  1  0  0  0  0
 15 14  1  0  0  0  0
 16 15  1  0  0  0  0
 17 16  1  0  0  0  0
 17 18  1  0  0  0  0
 19 17  1  0  0  0  0
 20 19  1  0  0  0  0
 20  7  1  0  0  0  0
 20 14  2  0  0  0  0
 21 17  1  0  0  0  0
 22 21  1  0  0  0  0
 23 22  1  0  0  0  0
 24 22  1  0  0  0  0
 25  2  1  0  0  0  0
  1 26  1  0  0  0  0
  1 27  1  0  0  0  0
  1 28  1  0  0  0  0
  3 29  1  0  0  0  0
  3 30  1  0  0  0  0
  4 31  1  0  0  0  0
  4 32  1  0  0  0  0
  5 33  1  0  0  0  0
  5 34  1  0  0  0  0
 11 35  1  0  0  0  0
 11 36  1  0  0  0  0
 12 37  1  0  0  0  0
 13 38  1  0  0  0  0
 16 39  1  0  0  0  0
 16 40  1  0  0  0  0
 19 41  1  0  0  0  0
 19 42  1  0  0  0  0
 21 43  1  0  0  0  0
 21 44  1  0  0  0  0
 23 45  1  0  0  0  0
 23 46  1  0  0  0  0
 23 47  1  0  0  0  0
 24 48  1  0  0  0  0
 24 49  1  0  0  0  0
 24 50  1  0  0  0  0
 25 51  1  0  0  0  0
 25 52  1  0  0  0  0
 25 53  1  0  0  0  0
M  END
>  <energy>
81.161455591124522

$$$$
