ligand.pdb
  1228              3D

 54 56  0  0  0  0  0  0  0  0999 V2000
    1.7567   -1.5859   -1.5269 N   0  0  0  0  0  0  0  0  0  0  0  0
    2.0293   -1.2851   -0.2940 C   0  0  0  0  0  0  0  0  0  0  0  0
    3.4469   -1.1675    0.2296 C   0  0  0  0  0  0  0  0  0  0  0  0
    3.5797   -1.8024    1.1103 H   0  0  0  0  0  0  0  0  0  0  0  0
    4.4679   -1.5595   -0.8068 C   0  0  0  0  0  0  0  0  0  0  0  0
    5.4422   -2.2660   -0.5630 O   0  0  0  0  0  0  0  0  0  0  0  0
    4.0283   -1.2608   -2.0821 N   0  0  0  0  0  0  0  0  0  0  0  0
    2.7680   -1.7133   -2.4539 C   0  0  0  0  0  0  0  0  0  0  0  0
    2.5603   -2.1640   -3.5810 O   0  0  0  0  0  0  0  0  0  0  0  0
    3.7022    0.2319    0.5755 N   0  0  0  0  0  0  0  0  0  0  0  0
    2.7019    0.9688    0.9391 C   0  0  0  0  0  0  0  0  0  0  0  0
    2.9203    2.4308    1.1190 C   0  0  0  0  0  0  0  0  0  0  0  0
    1.9949    3.2469    0.5763 C   0  0  0  0  0  0  0  0  0  0  0  0
    2.2054    4.7327    0.6779 C   0  0  0  0  0  0  0  0  0  0  0  0
    0.8523    2.6673   -0.1471 C   0  0  0  0  0  0  0  0  0  0  0  0
    0.4523    1.4078    0.1361 C   0  0  0  0  0  0  0  0  0  0  0  0
    1.2386    0.5102    1.0673 C   0  0  0  0  0  0  0  0  0  0  0  0
    0.9016    0.6659    2.1009 H   0  0  0  0  0  0  0  0  0  0  0  0
    1.0922   -0.8878    0.6455 N   0  0  0  0  0  0  0  0  0  0  0  0
    0.6621   -1.8491    1.6709 C   0  0  0  0  0  0  0  0  0  0  0  0
   -0.8308   -2.1913    1.5193 C   0  0  0  0  0  0  0  0  0  0  0  0
   -1.4278   -1.3538    1.8971 H   0  0  0  0  0  0  0  0  0  0  0  0
   -1.1745   -2.3520    0.1444 O   0  0  0  0  0  0  0  0  0  0  0  0
   -1.1662   -3.4778    2.3123 C   0  0  0  0  0  0  0  0  0  0  0  0
   -0.3075   -4.1585    2.2434 H   0  0  0  0  0  0  0  0  0  0  0  0
   -1.2805   -3.1463    3.6978 O   0  0  0  0  0  0  0  0  0  0  0  0
   -2.4142   -4.2518    1.8351 C   0  0  0  0  0  0  0  0  0  0  0  0
   -2.4729   -4.2557    0.7390 H   0  0  0  0  0  0  0  0  0  0  0  0
   -2.2647   -5.6199    2.2368 O   0  0  0  0  0  0  0  0  0  0  0  0
   -3.7241   -3.7342    2.4201 C   0  0  0  0  0  0  0  0  0  0  0  0
   -4.8251   -4.4745    1.9045 O   0  0  0  0  0  0  0  0  0  0  0  0
   -5.5265   -4.0083    0.5220 P   0  0  0  0  0  0  0  0  0  0  0  0
   -5.5936   -2.5338    0.2629 O   0  0  0  0  0  0  0  0  0  0  0  0
   -4.7396   -4.8590   -0.6046 O   0  0  0  0  0  0  0  0  0  0  0  0
   -6.9627   -4.7487    0.5827 O   0  0  0  0  0  0  0  0  0  0  0  0
   -0.0830    3.5576   -0.9398 C   0  0  0  0  0  0  0  0  0  0  0  0
    4.7408   -1.2586   -2.8087 H   0  0  0  0  0  0  0  0  0  0  0  0
    3.8309    2.7785    1.5922 H   0  0  0  0  0  0  0  0  0  0  0  0
    2.3122    5.0275    1.7311 H   0  0  0  0  0  0  0  0  0  0  0  0
    1.3903    5.3274    0.2596 H   0  0  0  0  0  0  0  0  0  0  0  0
    3.1208    5.0135    0.1434 H   0  0  0  0  0  0  0  0  0  0  0  0
   -0.2029    0.9101   -0.5856 H   0  0  0  0  0  0  0  0  0  0  0  0
    0.8548   -1.4569    2.6810 H   0  0  0  0  0  0  0  0  0  0  0  0
    1.2677   -2.7603    1.5750 H   0  0  0  0  0  0  0  0  0  0  0  0
   -0.3594   -2.4707   -0.3732 H   0  0  0  0  0  0  0  0  0  0  0  0
   -1.9704   -2.4671    3.7868 H   0  0  0  0  0  0  0  0  0  0  0  0
   -1.5054   -5.9809    1.7468 H   0  0  0  0  0  0  0  0  0  0  0  0
   -3.7566   -3.8596    3.5078 H   0  0  0  0  0  0  0  0  0  0  0  0
   -3.8623   -2.6711    2.2008 H   0  0  0  0  0  0  0  0  0  0  0  0
   -5.2438   -5.3841   -1.2622 H   0  0  0  0  0  0  0  0  0  0  0  0
   -7.6809   -4.3393    1.1072 H   0  0  0  0  0  0  0  0  0  0  0  0
    0.4204    3.8806   -1.8602 H   0  0  0  0  0  0  0  0  0  0  0  0
   -0.9958    3.0261   -1.2356 H   0  0  0  0  0  0  0  0  0  0  0  0
   -0.4040    4.4353   -0.3709 H   0  0  0  0  0  0  0  0  0  0  0  0
  2  1  2  0  0  0  0
  3  2  1  0  0  0  0
  3  4  1  0  0  0  0
  5  3  1  0  0  0  0
  6  5  2  0  0  0  0
  7  5  1  0  0  0  0
  8  7  1  0  0  0  0
  8  1  1  0  0  0  0
  9  8  2  0  0  0  0
 10  3  1  0  0  0  0
 11 10  2  0  0  0  0
 12 11  1  0  0  0  0
 13 12  2  0  0  0  0
 14 13  1  0  0  0  0
 15 13  1  0  0  0  0
 16 15  2  0  0  0  0
 17 16  1  0  0  0  0
 17 18  1  0  0  0  0
 17 11  1  0  0  0  0
 19 17  1  0  0  0  0
 19  2  1  0  0  0  0
 20 19  1  0  0  0  0
 21 20  1  0  0  0  0
 21 22  1  0  0  0  0
 23 21  1  0  0  0  0
 24 21  1  0  0  0  0
 24 25  1  0  0  0  0
 26 24  1  0  0  0  0
 27 24  1  0  0  0  0
 27 28  1  0  0  0  0
 29 27  1  0  0  0  0
 30 27  1  0  0  0  0
 31 30  1  0  0  0  0
 32 31  1  0  0  0  0
 33 32  2  0  0  0  0
 34 32  1  0  0  0  0
 35 32  1  0  0  0  0
 36 15  1  0  0  0  0
  7 37  1  0  0  0  0
 12 38  1  0  0  0  0
 14 39  1  0  0  0  0
 14 40  1  0  0  0  0
 14 41  1  0  0  0  0
 16 42  1  0  0  0  0
 20 43  1  0  0  0  0
 20 44  1  0  0  0  0
 23 45  1  0  0  0  0
 26 46  1  0  0  0  0
 29 47  1  0  0  0  0
 30 48  1  0  0  0  0
 30 49  1  0  0  0  0
 34 50  1  0  0  0  0
 35 51  1  0  0  0  0
 36 52  1  0  0  0  0
 36 53  1  0  0  0  0
 36 54  1  0  0  0  0
M  END
>  <energy>
91.965443766127152

$$$$
