4YAZ_4BW_R_106
  1228              3D

 69 75  0  0  0  0  0  0  0  0999 V2000
    2.6832    1.2413  -11.5730 O   0  0  0  0  0  0  0  0  0  0  0  0
    1.5085    0.9036  -11.6286 C   0  0  0  0  0  0  0  0  0  0  0  0
    0.4871    1.6277  -12.2564 N   0  0  0  0  0  0  0  0  0  0  0  0
    0.7451    2.4960  -12.7162 H   0  0  0  0  0  0  0  0  0  0  0  0
   -0.8457    1.1856  -12.4080 C   0  0  0  0  0  0  0  0  0  0  0  0
   -1.6717    2.0416  -13.1081 N   0  0  0  0  0  0  0  0  0  0  0  0
   -1.2845    0.0610  -11.8891 N   0  0  0  0  0  0  0  0  0  0  0  0
   -0.3341   -0.6220  -11.2036 C   0  0  0  0  0  0  0  0  0  0  0  0
    0.9978   -0.3139  -11.0602 C   0  0  0  0  0  0  0  0  0  0  0  0
    1.6818   -1.3008  -10.4201 N   0  0  0  0  0  0  0  0  0  0  0  0
    0.7364   -2.1317  -10.0243 C   0  0  0  0  0  0  0  0  0  0  0  0
   -0.4845   -1.8556  -10.6108 N   0  0  0  0  0  0  0  0  0  0  0  0
   -1.7742   -2.4287  -10.2124 C   0  0  0  0  0  0  0  0  0  0  0  0
   -2.2241   -2.7905  -11.1451 H   0  0  0  0  0  0  0  0  0  0  0  0
   -2.7063   -1.4776   -9.4446 C   0  0  0  0  0  0  0  0  0  0  0  0
   -2.4852   -0.4210   -9.6029 H   0  0  0  0  0  0  0  0  0  0  0  0
   -4.0603   -1.6867   -9.8419 O   0  0  0  0  0  0  0  0  0  0  0  0
   -2.5251   -1.8959   -7.9975 C   0  0  0  0  0  0  0  0  0  0  0  0
   -3.3630   -1.6461   -7.3376 H   0  0  0  0  0  0  0  0  0  0  0  0
   -2.3091   -3.4028   -8.1471 C   0  0  0  0  0  0  0  0  0  0  0  0
   -3.2862   -3.8825   -8.2981 H   0  0  0  0  0  0  0  0  0  0  0  0
   -1.5553   -3.5752   -9.3640 O   0  0  0  0  0  0  0  0  0  0  0  0
   -1.5949   -4.0884   -6.9870 C   0  0  0  0  0  0  0  0  0  0  0  0
   -2.3516   -3.9062   -5.7941 O   0  0  0  0  0  0  0  0  0  0  0  0
   -1.6009   -3.9852   -4.3602 P   0  0  0  0  0  0  0  0  0  0  0  0
   -0.3401   -4.7996   -4.3445 O   0  0  0  0  0  0  0  0  0  0  0  0
   -1.3982   -2.4254   -3.9928 O   0  0  0  0  0  0  0  0  0  0  0  0
   -1.8619   -1.8332   -2.7976 C   0  0  0  0  0  0  0  0  0  0  0  0
   -2.8352   -2.2547   -2.5215 H   0  0  0  0  0  0  0  0  0  0  0  0
   -2.0416   -0.3053   -2.9357 C   0  0  0  0  0  0  0  0  0  0  0  0
   -3.1186   -0.0864   -2.9083 H   0  0  0  0  0  0  0  0  0  0  0  0
   -1.4103    0.3449   -4.1649 C   0  0  0  0  0  0  0  0  0  0  0  0
   -2.0258   -0.1651   -5.3370 O   0  0  0  0  0  0  0  0  0  0  0  0
   -1.3453    0.1461   -6.7737 P   0  0  0  0  0  0  0  0  0  0  0  0
   -0.0012    0.8147   -6.7290 O   0  0  0  0  0  0  0  0  0  0  0  0
   -1.3316   -1.2949   -7.5074 O   0  0  0  0  0  0  0  0  0  0  0  0
   -2.4973    1.0050   -7.5148 O   0  0  0  0  0  0  0  0  0  0  0  0
   -1.4488    0.2995   -1.7661 O   0  0  0  0  0  0  0  0  0  0  0  0
   -1.1665   -0.7386   -0.8192 C   0  0  0  0  0  0  0  0  0  0  0  0
   -2.0723   -0.8638   -0.2088 H   0  0  0  0  0  0  0  0  0  0  0  0
   -0.8865   -1.9922   -1.6393 C   0  0  0  0  0  0  0  0  0  0  0  0
   -1.0619   -2.9072   -1.0607 H   0  0  0  0  0  0  0  0  0  0  0  0
    0.4469   -2.0156   -2.1301 O   0  0  0  0  0  0  0  0  0  0  0  0
   -0.0986   -0.2905    0.0513 N   0  0  0  0  0  0  0  0  0  0  0  0
   -0.1209   -0.3877    1.4195 C   0  0  0  0  0  0  0  0  0  0  0  0
    0.8979    0.2509    1.9546 N   0  0  0  0  0  0  0  0  0  0  0  0
    1.7828    0.4315    0.9003 C   0  0  0  0  0  0  0  0  0  0  0  0
    1.0190    0.4494   -0.2784 C   0  0  0  0  0  0  0  0  0  0  0  0
    1.5545    0.5776   -1.5115 N   0  0  0  0  0  0  0  0  0  0  0  0
    2.6730    1.3275   -1.4468 C   0  0  0  0  0  0  0  0  0  0  0  0
    3.4472    1.5413   -0.3584 N   0  0  0  0  0  0  0  0  0  0  0  0
    2.8850    1.3303    0.8722 C   0  0  0  0  0  0  0  0  0  0  0  0
    3.6905    1.4845    2.0239 N   0  0  0  0  0  0  0  0  0  0  0  0
   -2.7574   -4.5157   -3.3610 O   0  0  0  0  0  0  0  0  0  0  0  0
   -2.6577    1.7877  -13.0673 H   0  0  0  0  0  0  0  0  0  0  0  0
   -1.5780    3.0178  -12.8321 H   0  0  0  0  0  0  0  0  0  0  0  0
    0.9210   -3.0594   -9.4978 H   0  0  0  0  0  0  0  0  0  0  0  0
   -4.1827   -2.6292  -10.0438 H   0  0  0  0  0  0  0  0  0  0  0  0
   -1.4930   -5.1652   -7.1734 H   0  0  0  0  0  0  0  0  0  0  0  0
   -0.5829   -3.6832   -6.8655 H   0  0  0  0  0  0  0  0  0  0  0  0
   -1.5179    1.4383   -4.1597 H   0  0  0  0  0  0  0  0  0  0  0  0
   -0.3395    0.1228   -4.1894 H   0  0  0  0  0  0  0  0  0  0  0  0
   -2.3226    1.9428   -7.7444 H   0  0  0  0  0  0  0  0  0  0  0  0
    0.9473   -2.6448   -1.5814 H   0  0  0  0  0  0  0  0  0  0  0  0
   -0.9598   -0.8124    1.9541 H   0  0  0  0  0  0  0  0  0  0  0  0
    3.1245    1.5847   -2.3986 H   0  0  0  0  0  0  0  0  0  0  0  0
    4.3518    2.2477    1.8935 H   0  0  0  0  0  0  0  0  0  0  0  0
    3.1175    1.6743    2.8430 H   0  0  0  0  0  0  0  0  0  0  0  0
   -2.5052   -4.7918   -2.4530 H   0  0  0  0  0  0  0  0  0  0  0  0
  1  2  2  0  0  0  0
  2  3  1  0  0  0  0
  2  9  1  0  0  0  0
  3  4  1  0  0  0  0
  3  5  1  0  0  0  0
  5  6  1  0  0  0  0
  5  7  2  0  0  0  0
  6 55  1  0  0  0  0
  6 56  1  0  0  0  0
  7  8  1  0  0  0  0
  8  9  2  0  0  0  0
  8 12  1  0  0  0  0
  9 10  1  0  0  0  0
 10 11  2  0  0  0  0
 11 12  1  0  0  0  0
 11 57  1  0  0  0  0
 13 15  1  0  0  0  0
 13 22  1  0  0  0  0
 13 14  1  0  0  0  0
 13 12  1  0  0  0  0
 15 18  1  0  0  0  0
 15 17  1  0  0  0  0
 15 16  1  0  0  0  0
 17 58  1  0  0  0  0
 18 20  1  0  0  0  0
 18 36  1  0  0  0  0
 18 19  1  0  0  0  0
 20 22  1  0  0  0  0
 20 23  1  0  0  0  0
 20 21  1  0  0  0  0
 23 24  1  0  0  0  0
 23 59  1  0  0  0  0
 23 60  1  0  0  0  0
 25 24  1  0  0  0  0
 25 27  1  0  0  0  0
 25 26  2  0  0  0  0
 25 54  1  0  0  0  0
 27 28  1  0  0  0  0
 28 30  1  0  0  0  0
 28 41  1  0  0  0  0
 28 29  1  0  0  0  0
 30 32  1  0  0  0  0
 30 38  1  0  0  0  0
 30 31  1  0  0  0  0
 32 33  1  0  0  0  0
 32 61  1  0  0  0  0
 32 62  1  0  0  0  0
 34 33  1  0  0  0  0
 34 36  1  0  0  0  0
 34 37  1  0  0  0  0
 34 35  2  0  0  0  0
 37 63  1  0  0  0  0
 38 39  1  0  0  0  0
 39 41  1  0  0  0  0
 39 40  1  0  0  0  0
 39 44  1  0  0  0  0
 41 43  1  0  0  0  0
 41 42  1  0  0  0  0
 43 64  1  0  0  0  0
 44 45  1  0  0  0  0
 44 48  1  0  0  0  0
 45 46  2  0  0  0  0
 45 65  1  0  0  0  0
 46 47  1  0  0  0  0
 47 48  2  0  0  0  0
 47 52  1  0  0  0  0
 48 49  1  0  0  0  0
 49 50  2  0  0  0  0
 50 51  1  0  0  0  0
 50 66  1  0  0  0  0
 51 52  2  0  0  0  0
 52 53  1  0  0  0  0
 53 67  1  0  0  0  0
 53 68  1  0  0  0  0
 54 69  1  0  0  0  0
M  END
>  <energy>
124.62962031973368

$$$$
