4LVW_7DG_A_101
  1228              3D

 17 18  0  0  0  0  0  0  0  0999 V2000
   -1.2655    1.9889   -0.1599 N   0  0  0  0  0  0  0  0  0  0  0  0
   -2.3983    1.3433   -0.1262 C   0  0  0  0  0  0  0  0  0  0  0  0
   -2.3398   -0.1587    0.0059 C   0  0  0  0  0  0  0  0  0  0  0  0
   -0.8679   -0.1963   -0.0486 C   0  0  0  0  0  0  0  0  0  0  0  0
   -0.0514   -1.3883    0.0489 C   0  0  0  0  0  0  0  0  0  0  0  0
   -0.5461   -2.5044    0.1111 O   0  0  0  0  0  0  0  0  0  0  0  0
    1.2952   -1.1272   -0.0183 N   0  0  0  0  0  0  0  0  0  0  0  0
    1.9195   -1.9269    0.0220 H   0  0  0  0  0  0  0  0  0  0  0  0
    1.8400    0.1723   -0.0205 C   0  0  0  0  0  0  0  0  0  0  0  0
    3.2388    0.2364   -0.0807 N   0  0  0  0  0  0  0  0  0  0  0  0
    1.0605    1.2308   -0.1813 N   0  0  0  0  0  0  0  0  0  0  0  0
   -0.3039    1.0129   -0.0364 C   0  0  0  0  0  0  0  0  0  0  0  0
   -3.3836    1.8369   -0.1901 H   0  0  0  0  0  0  0  0  0  0  0  0
   -2.7806   -0.5063    0.9422 H   0  0  0  0  0  0  0  0  0  0  0  0
   -2.8123   -0.6608   -0.8437 H   0  0  0  0  0  0  0  0  0  0  0  0
    3.7682   -0.2881    0.6173 H   0  0  0  0  0  0  0  0  0  0  0  0
    3.6132    1.1772   -0.1381 H   0  0  0  0  0  0  0  0  0  0  0  0
  2  1  2  0  0  0  0
  3  2  1  0  0  0  0
  4  3  1  0  0  0  0
  5  4  1  0  0  0  0
  6  5  2  0  0  0  0
  7  5  1  0  0  0  0
  7  8  1  0  0  0  0
  9  7  1  0  0  0  0
 10  9  1  0  0  0  0
 11  9  2  0  0  0  0
 12 11  1  0  0  0  0
 12  1  1  0  0  0  0
 12  4  2  0  0  0  0
  2 13  1  0  0  0  0
  3 14  1  0  0  0  0
  3 15  1  0  0  0  0
 10 16  1  0  0  0  0
 10 17  1  0  0  0  0
M  END
>  <energy>
33.6727079224219

$$$$
