1P9X_TEL_0_2881
  1228              3D

123127  0  0  0  0  0  0  0  0999 V2000
   15.7183    4.1795   -2.1266 C   0  0  0  0  0  0  0  0  0  0  0  0
   14.2296    4.0070   -2.4677 C   0  0  0  0  0  0  0  0  0  0  0  0
   13.4677    5.3581   -2.3505 C   0  0  0  0  0  0  0  0  0  0  0  0
   14.1598    6.0377   -2.8824 H   0  0  0  0  0  0  0  0  0  0  0  0
   12.4708    5.2614   -3.3996 N   0  0  0  0  0  0  0  0  0  0  0  0
   12.9335    4.3574   -4.3569 C   0  0  0  0  0  0  0  0  0  0  0  0
   12.5131    4.2342   -5.4994 O   0  0  0  0  0  0  0  0  0  0  0  0
   14.1152    3.8070   -3.9271 O   0  0  0  0  0  0  0  0  0  0  0  0
   11.0431    5.5155   -3.2210 C   0  0  0  0  0  0  0  0  0  0  0  0
   10.7001    6.9276   -3.7050 C   0  0  0  0  0  0  0  0  0  0  0  0
    9.2174    7.2102   -3.9625 C   0  0  0  0  0  0  0  0  0  0  0  0
    8.5476    6.2352   -4.9386 C   0  0  0  0  0  0  0  0  0  0  0  0
    8.0701    5.0114   -4.3246 N   0  0  0  0  0  0  0  0  0  0  0  0
    8.1649    3.7642   -4.8852 C   0  0  0  0  0  0  0  0  0  0  0  0
    7.8901    2.9094   -3.8401 C   0  0  0  0  0  0  0  0  0  0  0  0
    7.5730    3.5985   -2.6989 N   0  0  0  0  0  0  0  0  0  0  0  0
    7.6000    4.8597   -3.0531 C   0  0  0  0  0  0  0  0  0  0  0  0
    8.0186    1.4668   -3.8938 C   0  0  0  0  0  0  0  0  0  0  0  0
    9.2926    0.9080   -4.0278 C   0  0  0  0  0  0  0  0  0  0  0  0
    9.5364   -0.3978   -3.6121 C   0  0  0  0  0  0  0  0  0  0  0  0
    8.5012   -1.0873   -3.0120 C   0  0  0  0  0  0  0  0  0  0  0  0
    7.2574   -0.5901   -2.8454 N   0  0  0  0  0  0  0  0  0  0  0  0
    7.0636    0.6872   -3.2513 C   0  0  0  0  0  0  0  0  0  0  0  0
   13.1819    6.2324   -1.1053 C   0  0  0  0  0  0  0  0  0  0  0  0
   12.6006    7.0733   -1.4773 H   0  0  0  0  0  0  0  0  0  0  0  0
   14.4721    6.8562   -0.5510 C   0  0  0  0  0  0  0  0  0  0  0  0
   12.4269    5.6548    0.0994 C   0  0  0  0  0  0  0  0  0  0  0  0
   12.9756    4.7886    0.7843 O   0  0  0  0  0  0  0  0  0  0  0  0
   11.0884    6.2850    0.5971 C   0  0  0  0  0  0  0  0  0  0  0  0
   10.2780    5.8420    0.0125 H   0  0  0  0  0  0  0  0  0  0  0  0
   11.0303    7.8099    0.3846 C   0  0  0  0  0  0  0  0  0  0  0  0
   10.9067    6.0392    2.1322 C   0  0  0  0  0  0  0  0  0  0  0  0
    9.9642    4.9168    2.7320 C   0  0  0  0  0  0  0  0  0  0  0  0
   10.5691    4.2304    3.8524 O   0  0  0  0  0  0  0  0  0  0  0  0
   11.9711    4.0661    3.9508 C   0  0  0  0  0  0  0  0  0  0  0  0
    8.8294    5.6871    3.4595 C   0  0  0  0  0  0  0  0  0  0  0  0
    9.3115    3.8732    1.7197 C   0  0  0  0  0  0  0  0  0  0  0  0
    9.8509    4.0237    0.7902 H   0  0  0  0  0  0  0  0  0  0  0  0
    9.5019    2.3525    2.0113 C   0  0  0  0  0  0  0  0  0  0  0  0
    8.9015    1.8013    1.2703 H   0  0  0  0  0  0  0  0  0  0  0  0
   10.9442    1.8553    1.7467 C   0  0  0  0  0  0  0  0  0  0  0  0
   11.5628    1.2322    2.6080 O   0  0  0  0  0  0  0  0  0  0  0  0
   11.5271    2.0347    0.3347 C   0  0  0  0  0  0  0  0  0  0  0  0
   11.4110    3.0799    0.0635 H   0  0  0  0  0  0  0  0  0  0  0  0
   13.0180    1.7300    0.2470 C   0  0  0  0  0  0  0  0  0  0  0  0
   13.5844    0.8759    0.9113 O   0  0  0  0  0  0  0  0  0  0  0  0
   13.7221    2.6736   -0.4427 O   0  0  0  0  0  0  0  0  0  0  0  0
   13.6588    2.6641   -1.8826 C   0  0  0  0  0  0  0  0  0  0  0  0
   12.6231    2.5350   -2.2231 H   0  0  0  0  0  0  0  0  0  0  0  0
   14.5600    1.4692   -2.3594 C   0  0  0  0  0  0  0  0  0  0  0  0
   13.8680    0.1226   -2.4867 C   0  0  0  0  0  0  0  0  0  0  0  0
   10.7112    1.1941   -0.6353 C   0  0  0  0  0  0  0  0  0  0  0  0
    9.0100    1.8928    3.3968 C   0  0  0  0  0  0  0  0  0  0  0  0
    7.9684    4.2594    1.2838 O   0  0  0  0  0  0  0  0  0  0  0  0
    6.7943    3.5371    1.7131 C   0  0  0  0  0  0  0  0  0  0  0  0
    7.0504    2.5142    1.9782 H   0  0  0  0  0  0  0  0  0  0  0  0
    5.7871    3.4376    0.5397 C   0  0  0  0  0  0  0  0  0  0  0  0
    5.7370    4.3968    0.0095 H   0  0  0  0  0  0  0  0  0  0  0  0
    6.3317    2.4900   -0.3739 O   0  0  0  0  0  0  0  0  0  0  0  0
    4.3699    3.0317    1.0539 C   0  0  0  0  0  0  0  0  0  0  0  0
    4.4668    2.0602    1.5648 H   0  0  0  0  0  0  0  0  0  0  0  0
    3.3033    2.9223    0.0188 N   0  0  0  0  0  0  0  0  0  0  0  0
    3.6418    2.0661   -1.1174 C   0  0  0  0  0  0  0  0  0  0  0  0
    2.0146    2.4804    0.5787 C   0  0  0  0  0  0  0  0  0  0  0  0
    3.9355    4.1049    2.0934 C   0  0  0  0  0  0  0  0  0  0  0  0
    5.0886    4.9409    2.6512 C   0  0  0  0  0  0  0  0  0  0  0  0
    5.3628    5.7354    1.9460 H   0  0  0  0  0  0  0  0  0  0  0  0
    6.2129    4.1036    2.8877 O   0  0  0  0  0  0  0  0  0  0  0  0
    4.7048    5.5820    3.9787 C   0  0  0  0  0  0  0  0  0  0  0  0
   16.3466    3.5553   -2.7672 H   0  0  0  0  0  0  0  0  0  0  0  0
   15.9273    3.9014   -1.0886 H   0  0  0  0  0  0  0  0  0  0  0  0
   16.0705    5.2067   -2.2679 H   0  0  0  0  0  0  0  0  0  0  0  0
   10.7654    5.3543   -2.1780 H   0  0  0  0  0  0  0  0  0  0  0  0
   10.5325    4.7493   -3.8104 H   0  0  0  0  0  0  0  0  0  0  0  0
   11.0378    7.6484   -2.9517 H   0  0  0  0  0  0  0  0  0  0  0  0
   11.2583    7.1551   -4.6190 H   0  0  0  0  0  0  0  0  0  0  0  0
    8.6825    7.2840   -3.0107 H   0  0  0  0  0  0  0  0  0  0  0  0
    9.1394    8.2185   -4.3939 H   0  0  0  0  0  0  0  0  0  0  0  0
    7.6908    6.7069   -5.4329 H   0  0  0  0  0  0  0  0  0  0  0  0
    9.2631    5.9576   -5.7232 H   0  0  0  0  0  0  0  0  0  0  0  0
    8.4957    3.6034   -5.8990 H   0  0  0  0  0  0  0  0  0  0  0  0
    7.4032    5.6873   -2.3853 H   0  0  0  0  0  0  0  0  0  0  0  0
   10.0671    1.4384   -4.5831 H   0  0  0  0  0  0  0  0  0  0  0  0
   10.5076   -0.8551   -3.7598 H   0  0  0  0  0  0  0  0  0  0  0  0
    8.6345   -2.1113   -2.6794 H   0  0  0  0  0  0  0  0  0  0  0  0
    6.0236    1.0175   -3.2108 H   0  0  0  0  0  0  0  0  0  0  0  0
   15.0752    7.3015   -1.3472 H   0  0  0  0  0  0  0  0  0  0  0  0
   15.0927    6.1179   -0.0343 H   0  0  0  0  0  0  0  0  0  0  0  0
   14.2411    7.6597    0.1564 H   0  0  0  0  0  0  0  0  0  0  0  0
   11.1177    8.1150   -0.6609 H   0  0  0  0  0  0  0  0  0  0  0  0
   10.0572    8.1954    0.7162 H   0  0  0  0  0  0  0  0  0  0  0  0
   11.8078    8.3228    0.9654 H   0  0  0  0  0  0  0  0  0  0  0  0
   11.9088    5.9891    2.5617 H   0  0  0  0  0  0  0  0  0  0  0  0
   10.5447    6.9893    2.5509 H   0  0  0  0  0  0  0  0  0  0  0  0
   12.1663    3.2985    4.7072 H   0  0  0  0  0  0  0  0  0  0  0  0
   12.4154    3.7373    3.0116 H   0  0  0  0  0  0  0  0  0  0  0  0
   12.4524    4.9805    4.3075 H   0  0  0  0  0  0  0  0  0  0  0  0
    8.2055    6.2523    2.7580 H   0  0  0  0  0  0  0  0  0  0  0  0
    8.1950    5.0055    4.0314 H   0  0  0  0  0  0  0  0  0  0  0  0
    9.2349    6.3979    4.1904 H   0  0  0  0  0  0  0  0  0  0  0  0
   15.0105    1.6812   -3.3371 H   0  0  0  0  0  0  0  0  0  0  0  0
   15.4069    1.3585   -1.6691 H   0  0  0  0  0  0  0  0  0  0  0  0
   14.3071   -0.4500   -3.3124 H   0  0  0  0  0  0  0  0  0  0  0  0
   13.9931   -0.4709   -1.5768 H   0  0  0  0  0  0  0  0  0  0  0  0
   12.8081    0.2175   -2.7097 H   0  0  0  0  0  0  0  0  0  0  0  0
   10.2545    0.3234   -0.1521 H   0  0  0  0  0  0  0  0  0  0  0  0
    9.9153    1.8016   -1.0747 H   0  0  0  0  0  0  0  0  0  0  0  0
   11.3141    0.8191   -1.4563 H   0  0  0  0  0  0  0  0  0  0  0  0
    8.4585    0.9467    3.2955 H   0  0  0  0  0  0  0  0  0  0  0  0
    8.3335    2.6134    3.8614 H   0  0  0  0  0  0  0  0  0  0  0  0
    9.8167    1.7137    4.1092 H   0  0  0  0  0  0  0  0  0  0  0  0
    6.1661    1.6014   -0.0190 H   0  0  0  0  0  0  0  0  0  0  0  0
    4.3914    2.5449   -1.7539 H   0  0  0  0  0  0  0  0  0  0  0  0
    4.0072    1.0823   -0.7927 H   0  0  0  0  0  0  0  0  0  0  0  0
    2.7731    1.9076   -1.7679 H   0  0  0  0  0  0  0  0  0  0  0  0
    1.2495    3.2254    0.3375 H   0  0  0  0  0  0  0  0  0  0  0  0
    1.6729    1.5201    0.1729 H   0  0  0  0  0  0  0  0  0  0  0  0
    2.0186    2.3596    1.6669 H   0  0  0  0  0  0  0  0  0  0  0  0
    3.4332    3.5842    2.9203 H   0  0  0  0  0  0  0  0  0  0  0  0
    3.1762    4.7818    1.6785 H   0  0  0  0  0  0  0  0  0  0  0  0
    3.6959    6.0052    3.9445 H   0  0  0  0  0  0  0  0  0  0  0  0
    5.3887    6.3949    4.2223 H   0  0  0  0  0  0  0  0  0  0  0  0
    4.7330    4.8600    4.7988 H   0  0  0  0  0  0  0  0  0  0  0  0
  1  2  1  0  0  0  0
  1 70  1  0  0  0  0
  1 71  1  0  0  0  0
  1 72  1  0  0  0  0
  2  3  1  0  0  0  0
  2  8  1  0  0  0  0
  2 48  1  0  0  0  0
  3  4  1  0  0  0  0
  3  5  1  0  0  0  0
  3 24  1  0  0  0  0
  5  6  1  0  0  0  0
  5  9  1  0  0  0  0
  6  7  2  0  0  0  0
  6  8  1  0  0  0  0
  9 10  1  0  0  0  0
  9 73  1  0  0  0  0
  9 74  1  0  0  0  0
 10 11  1  0  0  0  0
 10 75  1  0  0  0  0
 10 76  1  0  0  0  0
 11 12  1  0  0  0  0
 11 77  1  0  0  0  0
 11 78  1  0  0  0  0
 12 13  1  0  0  0  0
 12 79  1  0  0  0  0
 12 80  1  0  0  0  0
 13 14  1  0  0  0  0
 13 17  1  0  0  0  0
 14 15  2  0  0  0  0
 14 81  1  0  0  0  0
 15 16  1  0  0  0  0
 15 18  1  0  0  0  0
 16 17  2  0  0  0  0
 17 82  1  0  0  0  0
 18 19  2  0  0  0  0
 18 23  1  0  0  0  0
 19 20  1  0  0  0  0
 19 83  1  0  0  0  0
 20 21  2  0  0  0  0
 20 84  1  0  0  0  0
 21 22  1  0  0  0  0
 21 85  1  0  0  0  0
 22 23  2  0  0  0  0
 23 86  1  0  0  0  0
 24 27  1  0  0  0  0
 24 26  1  0  0  0  0
 24 25  1  0  0  0  0
 26 87  1  0  0  0  0
 26 88  1  0  0  0  0
 26 89  1  0  0  0  0
 27 28  2  0  0  0  0
 27 29  1  0  0  0  0
 29 30  1  0  0  0  0
 29 31  1  0  0  0  0
 29 32  1  0  0  0  0
 31 90  1  0  0  0  0
 31 91  1  0  0  0  0
 31 92  1  0  0  0  0
 32 33  1  0  0  0  0
 32 93  1  0  0  0  0
 32 94  1  0  0  0  0
 33 34  1  0  0  0  0
 33 36  1  0  0  0  0
 33 37  1  0  0  0  0
 34 35  1  0  0  0  0
 35 95  1  0  0  0  0
 35 96  1  0  0  0  0
 35 97  1  0  0  0  0
 36 98  1  0  0  0  0
 36 99  1  0  0  0  0
 36100  1  0  0  0  0
 37 38  1  0  0  0  0
 37 39  1  0  0  0  0
 37 54  1  0  0  0  0
 39 41  1  0  0  0  0
 39 53  1  0  0  0  0
 39 40  1  0  0  0  0
 41 42  2  0  0  0  0
 41 43  1  0  0  0  0
 43 44  1  0  0  0  0
 43 45  1  0  0  0  0
 43 52  1  0  0  0  0
 45 46  2  0  0  0  0
 45 47  1  0  0  0  0
 47 48  1  0  0  0  0
 48 49  1  0  0  0  0
 48 50  1  0  0  0  0
 50 51  1  0  0  0  0
 50101  1  0  0  0  0
 50102  1  0  0  0  0
 51103  1  0  0  0  0
 51104  1  0  0  0  0
 51105  1  0  0  0  0
 52106  1  0  0  0  0
 52107  1  0  0  0  0
 52108  1  0  0  0  0
 53109  1  0  0  0  0
 53110  1  0  0  0  0
 53111  1  0  0  0  0
 54 55  1  0  0  0  0
 55 56  1  0  0  0  0
 55 57  1  0  0  0  0
 55 68  1  0  0  0  0
 57 60  1  0  0  0  0
 57 59  1  0  0  0  0
 57 58  1  0  0  0  0
 59112  1  0  0  0  0
 60 65  1  0  0  0  0
 60 62  1  0  0  0  0
 60 61  1  0  0  0  0
 62 63  1  0  0  0  0
 62 64  1  0  0  0  0
 63113  1  0  0  0  0
 63114  1  0  0  0  0
 63115  1  0  0  0  0
 64116  1  0  0  0  0
 64117  1  0  0  0  0
 64118  1  0  0  0  0
 65 66  1  0  0  0  0
 65119  1  0  0  0  0
 65120  1  0  0  0  0
 66 68  1  0  0  0  0
 66 69  1  0  0  0  0
 66 67  1  0  0  0  0
 69121  1  0  0  0  0
 69122  1  0  0  0  0
 69123  1  0  0  0  0
M  END
>  <energy>
272.95387516502319

$$$$
