1NTA_SRY_A_26
  1228              3D

 79 81  0  0  0  0  0  0  0  0999 V2000
   -1.7713   -0.7159    0.3633 C   0  0  0  0  0  0  0  0  0  0  0  0
   -0.7260   -0.5816    0.0387 H   0  0  0  0  0  0  0  0  0  0  0  0
   -2.4083    0.5881    0.0918 N   0  0  0  0  0  0  0  0  0  0  0  0
   -3.6807    0.7996   -0.4591 C   0  0  0  0  0  0  0  0  0  0  0  0
   -3.9087    1.9133   -1.1202 N   0  0  0  0  0  0  0  0  0  0  0  0
   -4.7050    0.2322    0.2762 N   0  0  0  0  0  0  0  0  0  0  0  0
   -2.3021   -1.9303   -0.4103 C   0  0  0  0  0  0  0  0  0  0  0  0
   -3.3320   -2.1904   -0.1466 H   0  0  0  0  0  0  0  0  0  0  0  0
   -2.2685   -1.6534   -1.8108 O   0  0  0  0  0  0  0  0  0  0  0  0
   -1.3470   -3.1056   -0.0827 C   0  0  0  0  0  0  0  0  0  0  0  0
   -0.3173   -2.7581   -0.2346 H   0  0  0  0  0  0  0  0  0  0  0  0
   -1.5937   -4.2559   -0.9657 N   0  0  0  0  0  0  0  0  0  0  0  0
   -0.6396   -4.6711   -1.8841 C   0  0  0  0  0  0  0  0  0  0  0  0
    0.6477   -4.4667   -1.7455 N   0  0  0  0  0  0  0  0  0  0  0  0
   -1.0701   -5.8024   -2.5850 N   0  0  0  0  0  0  0  0  0  0  0  0
   -1.4776   -3.5553    1.3931 C   0  0  0  0  0  0  0  0  0  0  0  0
   -2.2656   -4.3231    1.4261 H   0  0  0  0  0  0  0  0  0  0  0  0
   -0.3001   -4.3180    1.7873 O   0  0  0  0  0  0  0  0  0  0  0  0
    0.7141   -3.6171    2.5196 C   0  0  0  0  0  0  0  0  0  0  0  0
    0.4866   -2.5576    2.4455 H   0  0  0  0  0  0  0  0  0  0  0  0
    0.9645   -4.1387    4.0428 C   0  0  0  0  0  0  0  0  0  0  0  0
   -0.1024   -4.2605    3.8906 H   0  0  0  0  0  0  0  0  0  0  0  0
    2.1033   -3.1241    4.1899 C   0  0  0  0  0  0  0  0  0  0  0  0
    1.6196   -1.7760    4.1053 O   0  0  0  0  0  0  0  0  0  0  0  0
    2.8952   -3.0247    5.4723 C   0  0  0  0  0  0  0  0  0  0  0  0
    2.7660   -2.0901    6.2708 O   0  0  0  0  0  0  0  0  0  0  0  0
    2.9703   -3.5618    3.0122 C   0  0  0  0  0  0  0  0  0  0  0  0
    3.3804   -4.5591    3.2302 H   0  0  0  0  0  0  0  0  0  0  0  0
    4.1225   -2.6518    2.6247 C   0  0  0  0  0  0  0  0  0  0  0  0
    2.0339   -3.7383    1.9242 O   0  0  0  0  0  0  0  0  0  0  0  0
    0.4662   -4.1796    5.4072 O   0  0  0  0  0  0  0  0  0  0  0  0
    0.7274   -5.5248    5.9367 C   0  0  0  0  0  0  0  0  0  0  0  0
    1.5037   -5.9457    5.2777 H   0  0  0  0  0  0  0  0  0  0  0  0
    1.5104   -5.4949    7.3735 C   0  0  0  0  0  0  0  0  0  0  0  0
    2.5441   -5.7678    7.1090 H   0  0  0  0  0  0  0  0  0  0  0  0
    1.5647   -4.1428    7.9508 N   0  0  0  0  0  0  0  0  0  0  0  0
    2.7175   -3.9637    8.8345 C   0  0  0  0  0  0  0  0  0  0  0  0
    1.0048   -6.5006    8.5013 C   0  0  0  0  0  0  0  0  0  0  0  0
    0.6180   -5.9885    9.3990 H   0  0  0  0  0  0  0  0  0  0  0  0
    2.0781   -7.2988    8.9937 O   0  0  0  0  0  0  0  0  0  0  0  0
   -0.1141   -7.3277    7.8647 C   0  0  0  0  0  0  0  0  0  0  0  0
   -0.3841   -6.2403    7.7952 H   0  0  0  0  0  0  0  0  0  0  0  0
    0.7801   -8.2202    7.1622 O   0  0  0  0  0  0  0  0  0  0  0  0
   -1.1090   -7.1431    6.7081 C   0  0  0  0  0  0  0  0  0  0  0  0
   -1.9989   -6.5482    6.9783 H   0  0  0  0  0  0  0  0  0  0  0  0
   -0.4102   -6.4088    5.6505 O   0  0  0  0  0  0  0  0  0  0  0  0
   -1.6556   -8.4631    6.1315 C   0  0  0  0  0  0  0  0  0  0  0  0
   -1.7322   -9.4795    7.1285 O   0  0  0  0  0  0  0  0  0  0  0  0
   -1.9329   -2.4229    2.3641 C   0  0  0  0  0  0  0  0  0  0  0  0
   -1.4669   -2.5407    3.3457 H   0  0  0  0  0  0  0  0  0  0  0  0
   -3.3326   -2.6366    2.6347 O   0  0  0  0  0  0  0  0  0  0  0  0
   -1.7687   -0.9518    1.8888 C   0  0  0  0  0  0  0  0  0  0  0  0
   -2.5657   -0.3541    2.3486 H   0  0  0  0  0  0  0  0  0  0  0  0
   -0.5438   -0.3965    2.3843 O   0  0  0  0  0  0  0  0  0  0  0  0
   -1.7227    1.2774   -0.2182 H   0  0  0  0  0  0  0  0  0  0  0  0
   -3.1123    2.0655   -1.7645 H   0  0  0  0  0  0  0  0  0  0  0  0
   -5.2030    0.8918    0.8731 H   0  0  0  0  0  0  0  0  0  0  0  0
   -4.4361   -0.5695    0.8380 H   0  0  0  0  0  0  0  0  0  0  0  0
   -3.1782   -1.7513   -2.1461 H   0  0  0  0  0  0  0  0  0  0  0  0
   -2.5476   -4.2848   -1.3243 H   0  0  0  0  0  0  0  0  0  0  0  0
    1.0765   -4.5808   -2.6789 H   0  0  0  0  0  0  0  0  0  0  0  0
   -0.8796   -6.6813   -2.1072 H   0  0  0  0  0  0  0  0  0  0  0  0
   -0.7079   -5.8559   -3.5363 H   0  0  0  0  0  0  0  0  0  0  0  0
    2.0935   -1.3250    3.3896 H   0  0  0  0  0  0  0  0  0  0  0  0
    3.6505   -3.8007    5.6578 H   0  0  0  0  0  0  0  0  0  0  0  0
    4.8322   -3.2009    1.9975 H   0  0  0  0  0  0  0  0  0  0  0  0
    4.6729   -2.3182    3.5118 H   0  0  0  0  0  0  0  0  0  0  0  0
    3.7984   -1.7658    2.0731 H   0  0  0  0  0  0  0  0  0  0  0  0
    0.6943   -3.9476    8.4462 H   0  0  0  0  0  0  0  0  0  0  0  0
    3.3848   -4.8328    8.8793 H   0  0  0  0  0  0  0  0  0  0  0  0
    2.3753   -3.7525    9.8498 H   0  0  0  0  0  0  0  0  0  0  0  0
    3.3358   -3.1182    8.5136 H   0  0  0  0  0  0  0  0  0  0  0  0
    1.7570   -7.7169    9.8101 H   0  0  0  0  0  0  0  0  0  0  0  0
    1.0391   -7.8499    6.3050 H   0  0  0  0  0  0  0  0  0  0  0  0
   -2.6721   -8.3157    5.7533 H   0  0  0  0  0  0  0  0  0  0  0  0
   -1.0270   -8.8262    5.3127 H   0  0  0  0  0  0  0  0  0  0  0  0
   -0.8503   -9.8839    7.1987 H   0  0  0  0  0  0  0  0  0  0  0  0
   -3.8500   -2.3039    1.8846 H   0  0  0  0  0  0  0  0  0  0  0  0
   -0.5371   -0.4893    3.3516 H   0  0  0  0  0  0  0  0  0  0  0  0
  1  2  1  0  0  0  0
  3  1  1  0  0  0  0
  4  3  1  0  0  0  0
  5  4  2  0  0  0  0
  6  4  1  0  0  0  0
  7  1  1  0  0  0  0
  7  8  1  0  0  0  0
  9  7  1  0  0  0  0
 10  7  1  0  0  0  0
 10 11  1  0  0  0  0
 12 10  1  0  0  0  0
 13 12  1  0  0  0  0
 14 13  2  0  0  0  0
 15 13  1  0  0  0  0
 16 10  1  0  0  0  0
 16 17  1  0  0  0  0
 18 16  1  0  0  0  0
 19 18  1  0  0  0  0
 19 20  1  0  0  0  0
 21 19  1  0  0  0  0
 21 22  1  0  0  0  0
 23 21  1  0  0  0  0
 24 23  1  0  0  0  0
 25 23  1  0  0  0  0
 26 25  2  0  0  0  0
 27 23  1  0  0  0  0
 27 28  1  0  0  0  0
 29 27  1  0  0  0  0
 30 27  1  0  0  0  0
 30 19  1  0  0  0  0
 31 21  1  0  0  0  0
 32 31  1  0  0  0  0
 32 33  1  0  0  0  0
 34 32  1  0  0  0  0
 34 35  1  0  0  0  0
 36 34  1  0  0  0  0
 37 36  1  0  0  0  0
 38 34  1  0  0  0  0
 38 39  1  0  0  0  0
 40 38  1  0  0  0  0
 41 38  1  0  0  0  0
 41 42  1  0  0  0  0
 43 41  1  0  0  0  0
 44 41  1  0  0  0  0
 44 45  1  0  0  0  0
 46 44  1  0  0  0  0
 46 32  1  0  0  0  0
 47 44  1  0  0  0  0
 48 47  1  0  0  0  0
 49 16  1  0  0  0  0
 49 50  1  0  0  0  0
 51 49  1  0  0  0  0
 52 49  1  0  0  0  0
 52 53  1  0  0  0  0
 52  1  1  0  0  0  0
 54 52  1  0  0  0  0
  3 55  1  0  0  0  0
  5 56  1  0  0  0  0
  6 57  1  0  0  0  0
  6 58  1  0  0  0  0
  9 59  1  0  0  0  0
 12 60  1  0  0  0  0
 14 61  1  0  0  0  0
 15 62  1  0  0  0  0
 15 63  1  0  0  0  0
 24 64  1  0  0  0  0
 25 65  1  0  0  0  0
 29 66  1  0  0  0  0
 29 67  1  0  0  0  0
 29 68  1  0  0  0  0
 36 69  1  0  0  0  0
 37 70  1  0  0  0  0
 37 71  1  0  0  0  0
 37 72  1  0  0  0  0
 40 73  1  0  0  0  0
 43 74  1  0  0  0  0
 47 75  1  0  0  0  0
 47 76  1  0  0  0  0
 48 77  1  0  0  0  0
 51 78  1  0  0  0  0
 54 79  1  0  0  0  0
M  END
>  <energy>
433.26747410519567

$$$$
