4PDQ_NMZ_B_101
  1228              3D

101104  0  0  0  0  0  0  0  0999 V2000
   -4.9906   -8.9981   -4.5959 C   0  0  0  0  0  0  0  0  0  0  0  0
   -4.0245   -9.4528   -4.8437 H   0  0  0  0  0  0  0  0  0  0  0  0
   -4.8765   -7.8668   -3.5769 C   0  0  0  0  0  0  0  0  0  0  0  0
   -4.5779   -8.3493   -2.6508 H   0  0  0  0  0  0  0  0  0  0  0  0
   -3.8849   -6.7254   -3.6947 C   0  0  0  0  0  0  0  0  0  0  0  0
   -2.5320   -7.1582   -3.9920 N   0  0  0  0  0  0  0  0  0  0  0  0
   -6.1703   -7.2667   -3.4122 O   0  0  0  0  0  0  0  0  0  0  0  0
   -6.9980   -8.1205   -2.6009 C   0  0  0  0  0  0  0  0  0  0  0  0
   -7.9801   -7.6289   -2.5598 H   0  0  0  0  0  0  0  0  0  0  0  0
   -7.2495   -9.4059   -3.5004 C   0  0  0  0  0  0  0  0  0  0  0  0
   -7.7178   -9.0337   -4.4267 H   0  0  0  0  0  0  0  0  0  0  0  0
   -5.9308  -10.0575   -3.9930 C   0  0  0  0  0  0  0  0  0  0  0  0
   -5.4223  -10.5714   -3.1830 H   0  0  0  0  0  0  0  0  0  0  0  0
   -6.1895  -11.0691   -4.9653 O   0  0  0  0  0  0  0  0  0  0  0  0
   -8.1971  -10.4019   -3.0142 N   0  0  0  0  0  0  0  0  0  0  0  0
   -6.4987   -8.0289   -1.2299 O   0  0  0  0  0  0  0  0  0  0  0  0
   -5.8088   -9.1247   -0.6267 C   0  0  0  0  0  0  0  0  0  0  0  0
   -5.5210   -9.7771   -1.4357 H   0  0  0  0  0  0  0  0  0  0  0  0
   -4.4793   -8.8172    0.2507 C   0  0  0  0  0  0  0  0  0  0  0  0
   -4.8014   -8.3058    1.1740 H   0  0  0  0  0  0  0  0  0  0  0  0
   -3.6838  -10.2182    0.5405 C   0  0  0  0  0  0  0  0  0  0  0  0
   -3.1686   -9.4463    1.0727 H   0  0  0  0  0  0  0  0  0  0  0  0
   -4.7967  -11.2639    0.6583 C   0  0  0  0  0  0  0  0  0  0  0  0
   -4.5224  -12.0812    1.3300 H   0  0  0  0  0  0  0  0  0  0  0  0
   -6.1036  -10.7291    1.2863 C   0  0  0  0  0  0  0  0  0  0  0  0
   -6.8281   -9.7971    0.3236 C   0  0  0  0  0  0  0  0  0  0  0  0
   -7.3947   -9.0360    0.8689 H   0  0  0  0  0  0  0  0  0  0  0  0
   -7.7990  -10.5817   -0.4036 N   0  0  0  0  0  0  0  0  0  0  0  0
   -4.9149  -11.9266   -0.6389 N   0  0  0  0  0  0  0  0  0  0  0  0
   -3.7613  -12.1601   -1.3829 C   0  0  0  0  0  0  0  0  0  0  0  0
   -3.2627  -11.3289   -2.1568 O   0  0  0  0  0  0  0  0  0  0  0  0
   -3.2196  -13.5815   -1.3458 C   0  0  0  0  0  0  0  0  0  0  0  0
   -3.1251  -13.9489   -2.3838 H   0  0  0  0  0  0  0  0  0  0  0  0
   -4.0283  -14.5931   -0.5248 C   0  0  0  0  0  0  0  0  0  0  0  0
   -3.7557  -14.5591    0.9855 C   0  0  0  0  0  0  0  0  0  0  0  0
   -3.3759  -15.8738    1.4846 N   0  0  0  0  0  0  0  0  0  0  0  0
   -1.8953  -13.4357   -0.8383 O   0  0  0  0  0  0  0  0  0  0  0  0
   -2.8218  -10.8402    1.5795 O   0  0  0  0  0  0  0  0  0  0  0  0
   -3.5182   -8.0286   -0.4919 O   0  0  0  0  0  0  0  0  0  0  0  0
   -2.4978   -7.2991    0.2222 C   0  0  0  0  0  0  0  0  0  0  0  0
   -2.3237   -6.4754   -0.4750 H   0  0  0  0  0  0  0  0  0  0  0  0
   -2.7438   -6.7416    1.6240 C   0  0  0  0  0  0  0  0  0  0  0  0
   -2.7663   -7.5430    2.3848 H   0  0  0  0  0  0  0  0  0  0  0  0
   -1.4720   -5.9060    1.7807 C   0  0  0  0  0  0  0  0  0  0  0  0
   -1.2528   -5.6565    2.8231 H   0  0  0  0  0  0  0  0  0  0  0  0
   -0.4081   -6.7928    1.1062 C   0  0  0  0  0  0  0  0  0  0  0  0
    0.0553   -6.2582    0.2711 H   0  0  0  0  0  0  0  0  0  0  0  0
    0.7815   -7.1477    2.0136 C   0  0  0  0  0  0  0  0  0  0  0  0
    1.1308   -8.5164    1.9485 O   0  0  0  0  0  0  0  0  0  0  0  0
   -1.1567   -7.8680    0.4449 O   0  0  0  0  0  0  0  0  0  0  0  0
   -1.6239   -4.7791    0.9293 O   0  0  0  0  0  0  0  0  0  0  0  0
   -1.4640   -3.4722    1.4343 C   0  0  0  0  0  0  0  0  0  0  0  0
   -2.4760   -3.0651    1.4804 H   0  0  0  0  0  0  0  0  0  0  0  0
   -0.6531   -2.6363    0.3053 C   0  0  0  0  0  0  0  0  0  0  0  0
   -1.3527   -1.9249   -0.1708 H   0  0  0  0  0  0  0  0  0  0  0  0
    0.4598   -1.9171    1.1176 C   0  0  0  0  0  0  0  0  0  0  0  0
   -0.5463   -1.5690    1.4258 H   0  0  0  0  0  0  0  0  0  0  0  0
    0.5144   -1.3217    2.5691 C   0  0  0  0  0  0  0  0  0  0  0  0
    0.3729   -0.2272    2.5714 H   0  0  0  0  0  0  0  0  0  0  0  0
   -0.7117   -2.0405    3.3188 C   0  0  0  0  0  0  0  0  0  0  0  0
   -1.6205   -1.4816    3.0546 H   0  0  0  0  0  0  0  0  0  0  0  0
   -0.6169   -2.1103    4.8323 C   0  0  0  0  0  0  0  0  0  0  0  0
   -1.9472   -1.9248    5.4144 N   0  0  0  0  0  0  0  0  0  0  0  0
   -0.9166   -3.3892    2.7919 O   0  0  0  0  0  0  0  0  0  0  0  0
    1.7558   -1.6069    3.2021 O   0  0  0  0  0  0  0  0  0  0  0  0
    1.1847   -3.1559    1.3782 O   0  0  0  0  0  0  0  0  0  0  0  0
   -0.1675   -3.4134   -0.8427 N   0  0  0  0  0  0  0  0  0  0  0  0
   -3.8965   -5.9368    1.7164 O   0  0  0  0  0  0  0  0  0  0  0  0
   -5.5414   -8.5146   -5.7447 F   0  0  0  0  0  0  0  0  0  0  0  0
   -3.8634   -6.2304   -2.7094 H   0  0  0  0  0  0  0  0  0  0  0  0
   -4.2235   -5.9604   -4.3938 H   0  0  0  0  0  0  0  0  0  0  0  0
   -2.5440   -8.0575   -4.4666 H   0  0  0  0  0  0  0  0  0  0  0  0
   -2.0421   -7.3137   -3.1115 H   0  0  0  0  0  0  0  0  0  0  0  0
   -6.1087  -11.9333   -4.5178 H   0  0  0  0  0  0  0  0  0  0  0  0
   -7.7166  -10.9766   -2.3229 H   0  0  0  0  0  0  0  0  0  0  0  0
   -8.4207  -11.0589   -3.7645 H   0  0  0  0  0  0  0  0  0  0  0  0
   -6.7613  -11.5690    1.5943 H   0  0  0  0  0  0  0  0  0  0  0  0
   -5.8522  -10.1442    2.1920 H   0  0  0  0  0  0  0  0  0  0  0  0
   -8.7635  -10.3201   -0.2181 H   0  0  0  0  0  0  0  0  0  0  0  0
   -7.7273  -11.5779   -0.2464 H   0  0  0  0  0  0  0  0  0  0  0  0
   -5.7778  -11.7895   -1.1631 H   0  0  0  0  0  0  0  0  0  0  0  0
   -3.8308  -15.5906   -0.9447 H   0  0  0  0  0  0  0  0  0  0  0  0
   -5.0997  -14.4213   -0.6997 H   0  0  0  0  0  0  0  0  0  0  0  0
   -4.6636  -14.2565    1.5106 H   0  0  0  0  0  0  0  0  0  0  0  0
   -2.9785  -13.8366    1.2622 H   0  0  0  0  0  0  0  0  0  0  0  0
   -2.4565  -16.1082    1.1144 H   0  0  0  0  0  0  0  0  0  0  0  0
   -4.0188  -16.5824    1.1294 H   0  0  0  0  0  0  0  0  0  0  0  0
   -1.4685  -14.3088   -0.8621 H   0  0  0  0  0  0  0  0  0  0  0  0
   -2.3204  -11.5167    1.0814 H   0  0  0  0  0  0  0  0  0  0  0  0
    1.6617   -6.5632    1.7009 H   0  0  0  0  0  0  0  0  0  0  0  0
    0.6144   -6.8774    3.0633 H   0  0  0  0  0  0  0  0  0  0  0  0
    1.9303   -8.5879    1.3965 H   0  0  0  0  0  0  0  0  0  0  0  0
    0.0406   -1.3365    5.2262 H   0  0  0  0  0  0  0  0  0  0  0  0
   -0.2215   -3.0741    5.1636 H   0  0  0  0  0  0  0  0  0  0  0  0
   -2.5963   -2.5840    4.9835 H   0  0  0  0  0  0  0  0  0  0  0  0
   -2.2953   -0.9961    5.1704 H   0  0  0  0  0  0  0  0  0  0  0  0
    2.3159   -0.8194    3.0980 H   0  0  0  0  0  0  0  0  0  0  0  0
    1.1596   -3.3965    2.3191 H   0  0  0  0  0  0  0  0  0  0  0  0
   -0.9197   -3.5018   -1.5279 H   0  0  0  0  0  0  0  0  0  0  0  0
    0.0176   -4.3697   -0.5488 H   0  0  0  0  0  0  0  0  0  0  0  0
   -4.5519   -6.4434    2.2254 H   0  0  0  0  0  0  0  0  0  0  0  0
  1  2  1  0  0  0  0
  1  3  1  0  0  0  0
  1 69  1  0  0  0  0
  3  4  1  0  0  0  0
  3  5  1  0  0  0  0
  3  7  1  0  0  0  0
  5  6  1  0  0  0  0
  5 70  1  0  0  0  0
  5 71  1  0  0  0  0
  6 72  1  0  0  0  0
  6 73  1  0  0  0  0
  7  8  1  0  0  0  0
  8  9  1  0  0  0  0
  8 10  1  0  0  0  0
  8 16  1  0  0  0  0
 10 11  1  0  0  0  0
 10 12  1  0  0  0  0
 10 15  1  0  0  0  0
 12  1  1  0  0  0  0
 12 14  1  0  0  0  0
 12 13  1  0  0  0  0
 14 74  1  0  0  0  0
 15 75  1  0  0  0  0
 15 76  1  0  0  0  0
 16 17  1  0  0  0  0
 17 18  1  0  0  0  0
 17 19  1  0  0  0  0
 19 21  1  0  0  0  0
 19 39  1  0  0  0  0
 19 20  1  0  0  0  0
 21 23  1  0  0  0  0
 21 38  1  0  0  0  0
 21 22  1  0  0  0  0
 23 24  1  0  0  0  0
 23 25  1  0  0  0  0
 23 29  1  0  0  0  0
 25 26  1  0  0  0  0
 25 77  1  0  0  0  0
 25 78  1  0  0  0  0
 26 27  1  0  0  0  0
 26 17  1  0  0  0  0
 26 28  1  0  0  0  0
 28 79  1  0  0  0  0
 28 80  1  0  0  0  0
 29 30  1  0  0  0  0
 29 81  1  0  0  0  0
 30 31  2  0  0  0  0
 32 34  1  0  0  0  0
 32 37  1  0  0  0  0
 32 33  1  0  0  0  0
 32 30  1  0  0  0  0
 34 35  1  0  0  0  0
 34 82  1  0  0  0  0
 34 83  1  0  0  0  0
 35 36  1  0  0  0  0
 35 84  1  0  0  0  0
 35 85  1  0  0  0  0
 36 86  1  0  0  0  0
 36 87  1  0  0  0  0
 37 88  1  0  0  0  0
 38 89  1  0  0  0  0
 39 40  1  0  0  0  0
 40 41  1  0  0  0  0
 40 42  1  0  0  0  0
 40 50  1  0  0  0  0
 42 44  1  0  0  0  0
 42 68  1  0  0  0  0
 42 43  1  0  0  0  0
 44 45  1  0  0  0  0
 44 46  1  0  0  0  0
 44 51  1  0  0  0  0
 46 50  1  0  0  0  0
 46 48  1  0  0  0  0
 46 47  1  0  0  0  0
 48 49  1  0  0  0  0
 48 90  1  0  0  0  0
 48 91  1  0  0  0  0
 49 92  1  0  0  0  0
 52 54  1  0  0  0  0
 52 64  1  0  0  0  0
 52 53  1  0  0  0  0
 52 51  1  0  0  0  0
 54 56  1  0  0  0  0
 54 67  1  0  0  0  0
 54 55  1  0  0  0  0
 56 58  1  0  0  0  0
 56 66  1  0  0  0  0
 56 57  1  0  0  0  0
 58 59  1  0  0  0  0
 58 60  1  0  0  0  0
 58 65  1  0  0  0  0
 60 61  1  0  0  0  0
 60 62  1  0  0  0  0
 60 64  1  0  0  0  0
 62 63  1  0  0  0  0
 62 93  1  0  0  0  0
 62 94  1  0  0  0  0
 63 95  1  0  0  0  0
 63 96  1  0  0  0  0
 65 97  1  0  0  0  0
 66 98  1  0  0  0  0
 67 99  1  0  0  0  0
 67100  1  0  0  0  0
 68101  1  0  0  0  0
M  END
>  <energy>
475.76312837493629

$$$$
