3D2G_TPP_A_83
  1228              3D

 45 46  0  0  0  0  0  0  0  0999 V2000
   -1.2052   -0.3524   -3.5116 N   0  0  0  0  0  0  0  0  0  0  0  0
   -2.2527   -1.0834   -3.9265 C   0  0  0  0  0  0  0  0  0  0  0  0
   -2.3116   -1.4228   -5.3824 C   0  0  0  0  0  0  0  0  0  0  0  0
   -3.2349   -1.5603   -3.1322 N   0  0  0  0  0  0  0  0  0  0  0  0
   -3.1319   -1.3230   -1.8000 C   0  0  0  0  0  0  0  0  0  0  0  0
   -4.1012   -1.8998   -0.9540 N   0  0  0  0  0  0  0  0  0  0  0  0
   -2.0871   -0.5704   -1.2590 C   0  0  0  0  0  0  0  0  0  0  0  0
   -1.1433   -0.1381   -2.1829 C   0  0  0  0  0  0  0  0  0  0  0  0
   -1.7963   -0.4421    0.2157 C   0  0  0  0  0  0  0  0  0  0  0  0
   -2.7325    0.4486    0.9170 N   0  3  0  0  0  0  0  0  0  0  0  0
   -3.7550   -0.0497    1.5888 C   0  0  0  0  0  0  0  0  0  0  0  0
   -4.6665    1.1745    2.3407 S   0  0  0  0  0  0  0  0  0  0  0  0
   -3.4468    2.3491    2.0093 C   0  0  0  0  0  0  0  0  0  0  0  0
   -2.5651    1.8188    1.0783 C   0  0  0  0  0  0  0  0  0  0  0  0
   -1.6194    2.5539    0.2018 C   0  0  0  0  0  0  0  0  0  0  0  0
   -3.2650    3.4880    2.9738 C   0  0  0  0  0  0  0  0  0  0  0  0
   -2.9386    4.8307    2.3414 C   0  0  0  0  0  0  0  0  0  0  0  0
   -3.8394    5.0845    1.2767 O   0  0  0  0  0  0  0  0  0  0  0  0
   -4.1803    6.6045    0.8568 P   0  0  0  0  0  0  0  0  0  0  0  0
   -4.5878    7.5170    1.9730 O   0  0  0  0  0  0  0  0  0  0  0  0
   -2.8760    7.0742    0.0231 O   0  0  0  0  0  0  0  0  0  0  0  0
   -5.2986    6.4070   -0.2949 O   0  0  0  0  0  0  0  0  0  0  0  0
   -6.8313    5.9076   -0.1886 P   0  0  0  0  0  0  0  0  0  0  0  0
   -7.0273    4.5908    0.5020 O   0  0  0  0  0  0  0  0  0  0  0  0
   -7.3478    5.9602   -1.7207 O   0  0  0  0  0  0  0  0  0  0  0  0
   -7.5807    7.1631    0.4976 O   0  0  0  0  0  0  0  0  0  0  0  0
   -2.1294   -0.5314   -5.9873 H   0  0  0  0  0  0  0  0  0  0  0  0
   -1.5453   -2.1686   -5.6132 H   0  0  0  0  0  0  0  0  0  0  0  0
   -3.2897   -1.8321   -5.6530 H   0  0  0  0  0  0  0  0  0  0  0  0
   -4.9293   -1.3055   -0.9044 H   0  0  0  0  0  0  0  0  0  0  0  0
   -4.3656   -2.8199   -1.2939 H   0  0  0  0  0  0  0  0  0  0  0  0
   -0.3196    0.5056   -1.8781 H   0  0  0  0  0  0  0  0  0  0  0  0
   -1.8250   -1.4373    0.6795 H   0  0  0  0  0  0  0  0  0  0  0  0
   -0.7778   -0.0718    0.3847 H   0  0  0  0  0  0  0  0  0  0  0  0
   -4.0176   -1.0983    1.6143 H   0  0  0  0  0  0  0  0  0  0  0  0
   -0.6020    2.4912    0.5972 H   0  0  0  0  0  0  0  0  0  0  0  0
   -1.6336    2.1764   -0.8212 H   0  0  0  0  0  0  0  0  0  0  0  0
   -1.8888    3.6092    0.1159 H   0  0  0  0  0  0  0  0  0  0  0  0
   -4.1662    3.6120    3.5884 H   0  0  0  0  0  0  0  0  0  0  0  0
   -2.4589    3.2186    3.6678 H   0  0  0  0  0  0  0  0  0  0  0  0
   -3.0322    5.6178    3.0974 H   0  0  0  0  0  0  0  0  0  0  0  0
   -1.9093    4.8624    1.9707 H   0  0  0  0  0  0  0  0  0  0  0  0
   -2.9588    7.2456   -0.9384 H   0  0  0  0  0  0  0  0  0  0  0  0
   -7.0246    6.6752   -2.3082 H   0  0  0  0  0  0  0  0  0  0  0  0
   -7.6852    7.9937   -0.0171 H   0  0  0  0  0  0  0  0  0  0  0  0
  2  1  2  0  0  0  0
  3  2  1  0  0  0  0
  4  2  1  0  0  0  0
  5  4  2  0  0  0  0
  6  5  1  0  0  0  0
  7  5  1  0  0  0  0
  8  7  2  0  0  0  0
  8  1  1  0  0  0  0
  9  7  1  0  0  0  0
 10  9  1  0  0  0  0
 11 10  2  0  0  0  0
 12 11  1  0  0  0  0
 13 12  1  0  0  0  0
 14 13  2  0  0  0  0
 14 10  1  0  0  0  0
 15 14  1  0  0  0  0
 16 13  1  0  0  0  0
 17 16  1  0  0  0  0
 18 17  1  0  0  0  0
 19 18  1  0  0  0  0
 20 19  2  0  0  0  0
 21 19  1  0  0  0  0
 22 19  1  0  0  0  0
 23 22  1  0  0  0  0
 24 23  2  0  0  0  0
 25 23  1  0  0  0  0
 26 23  1  0  0  0  0
  3 27  1  0  0  0  0
  3 28  1  0  0  0  0
  3 29  1  0  0  0  0
  6 30  1  0  0  0  0
  6 31  1  0  0  0  0
  8 32  1  0  0  0  0
  9 33  1  0  0  0  0
  9 34  1  0  0  0  0
 11 35  1  0  0  0  0
 15 36  1  0  0  0  0
 15 37  1  0  0  0  0
 15 38  1  0  0  0  0
 16 39  1  0  0  0  0
 16 40  1  0  0  0  0
 17 41  1  0  0  0  0
 17 42  1  0  0  0  0
 21 43  1  0  0  0  0
 25 44  1  0  0  0  0
 26 45  1  0  0  0  0
M  CHG  1  10   1
M  END
>  <energy>
29.954763563137853

$$$$
