4QK9_2BA_A_201
  1228              3D

 68 74  0  0  0  0  0  0  0  0999 V2000
   -3.7523    0.4930    0.3252 P   0  0  0  0  0  0  0  0  0  0  0  0
   -4.4649   -0.7350    0.8011 O   0  0  0  0  0  0  0  0  0  0  0  0
   -4.3654    1.8861    0.8671 O   0  0  0  0  0  0  0  0  0  0  0  0
   -2.1885    0.5378    0.7219 O   0  0  0  0  0  0  0  0  0  0  0  0
   -1.5913    1.7159    1.2394 C   0  0  0  0  0  0  0  0  0  0  0  0
   -0.0880    1.6205    1.0647 C   0  0  0  0  0  0  0  0  0  0  0  0
    0.3533    2.4249    1.6714 H   0  0  0  0  0  0  0  0  0  0  0  0
    0.4083    0.3695    1.5645 O   0  0  0  0  0  0  0  0  0  0  0  0
    1.4336   -0.1020    0.6629 C   0  0  0  0  0  0  0  0  0  0  0  0
    1.0039   -0.9047    0.0450 H   0  0  0  0  0  0  0  0  0  0  0  0
    1.7723    1.0910   -0.2352 C   0  0  0  0  0  0  0  0  0  0  0  0
    2.4833    1.8039    0.1987 H   0  0  0  0  0  0  0  0  0  0  0  0
    0.3943    1.7067   -0.3770 C   0  0  0  0  0  0  0  0  0  0  0  0
   -0.2207    1.0939   -1.0477 H   0  0  0  0  0  0  0  0  0  0  0  0
    0.4404    3.0507   -0.8045 O   0  0  0  0  0  0  0  0  0  0  0  0
   -0.3509    3.5639   -2.1215 P   0  0  0  0  0  0  0  0  0  0  0  0
   -0.3799    5.0600   -2.2580 O   0  0  0  0  0  0  0  0  0  0  0  0
    0.4182    2.8084   -3.3314 O   0  0  0  0  0  0  0  0  0  0  0  0
   -1.8258    2.8867   -2.0342 O   0  0  0  0  0  0  0  0  0  0  0  0
   -2.2956    2.0955   -3.1156 C   0  0  0  0  0  0  0  0  0  0  0  0
   -3.8189    2.0955   -3.1966 C   0  0  0  0  0  0  0  0  0  0  0  0
   -4.2022    3.1129   -3.3485 H   0  0  0  0  0  0  0  0  0  0  0  0
   -4.1438    1.3499   -4.3978 O   0  0  0  0  0  0  0  0  0  0  0  0
   -4.6680    0.0838   -3.9659 C   0  0  0  0  0  0  0  0  0  0  0  0
   -3.8071   -0.5097   -3.6355 H   0  0  0  0  0  0  0  0  0  0  0  0
   -5.5319    0.4474   -2.7748 C   0  0  0  0  0  0  0  0  0  0  0  0
   -5.8157   -0.4255   -2.1805 H   0  0  0  0  0  0  0  0  0  0  0  0
   -4.5860    1.4027   -2.0462 C   0  0  0  0  0  0  0  0  0  0  0  0
   -5.1119    2.1363   -1.4269 H   0  0  0  0  0  0  0  0  0  0  0  0
   -3.6744    0.6364   -1.2782 O   0  0  0  0  0  0  0  0  0  0  0  0
   -6.7081    1.1514   -3.1599 O   0  0  0  0  0  0  0  0  0  0  0  0
   -5.2211   -0.5977   -5.1073 N   0  0  0  0  0  0  0  0  0  0  0  0
   -5.9525   -0.0526   -6.1336 C   0  0  0  0  0  0  0  0  0  0  0  0
   -5.8462   -0.7760   -7.2354 N   0  0  0  0  0  0  0  0  0  0  0  0
   -4.8128   -1.6420   -6.9489 C   0  0  0  0  0  0  0  0  0  0  0  0
   -4.0898   -2.5407   -7.7486 C   0  0  0  0  0  0  0  0  0  0  0  0
   -3.7721   -2.2142   -9.0834 N   0  0  0  0  0  0  0  0  0  0  0  0
   -3.3225   -3.4635   -7.0955 N   0  0  0  0  0  0  0  0  0  0  0  0
   -3.4213   -3.5623   -5.7506 C   0  0  0  0  0  0  0  0  0  0  0  0
   -4.0419   -2.7272   -4.9003 N   0  0  0  0  0  0  0  0  0  0  0  0
   -4.7427   -1.8032   -5.5740 C   0  0  0  0  0  0  0  0  0  0  0  0
    2.2763    0.6428   -1.4843 O   0  0  0  0  0  0  0  0  0  0  0  0
    2.4606   -0.7085    1.4783 N   0  0  0  0  0  0  0  0  0  0  0  0
    3.5894   -0.1295    1.9893 C   0  0  0  0  0  0  0  0  0  0  0  0
    4.2704   -0.9824    2.7297 N   0  0  0  0  0  0  0  0  0  0  0  0
    3.3794   -2.0079    2.9749 C   0  0  0  0  0  0  0  0  0  0  0  0
    3.5996   -3.2432    3.6210 C   0  0  0  0  0  0  0  0  0  0  0  0
    4.5192   -3.3426    4.6847 N   0  0  0  0  0  0  0  0  0  0  0  0
    2.6136   -4.1803    3.5034 N   0  0  0  0  0  0  0  0  0  0  0  0
    1.6575   -3.9905    2.5670 C   0  0  0  0  0  0  0  0  0  0  0  0
    1.4694   -2.9260    1.7616 N   0  0  0  0  0  0  0  0  0  0  0  0
    2.4256   -2.0020    1.9617 C   0  0  0  0  0  0  0  0  0  0  0  0
   -4.3226    2.0678    1.8297 H   0  0  0  0  0  0  0  0  0  0  0  0
   -1.9837    2.6045    0.7361 H   0  0  0  0  0  0  0  0  0  0  0  0
   -1.8466    1.7637    2.3036 H   0  0  0  0  0  0  0  0  0  0  0  0
    1.2886    2.3896   -3.1646 H   0  0  0  0  0  0  0  0  0  0  0  0
   -1.8917    1.0857   -2.9977 H   0  0  0  0  0  0  0  0  0  0  0  0
   -1.8998    2.4907   -4.0565 H   0  0  0  0  0  0  0  0  0  0  0  0
   -6.4559    1.8316   -3.8081 H   0  0  0  0  0  0  0  0  0  0  0  0
   -6.5169    0.8652   -6.0333 H   0  0  0  0  0  0  0  0  0  0  0  0
   -2.7862   -2.4062   -9.2523 H   0  0  0  0  0  0  0  0  0  0  0  0
   -3.9430   -1.2298   -9.2742 H   0  0  0  0  0  0  0  0  0  0  0  0
   -2.8340   -4.3493   -5.2921 H   0  0  0  0  0  0  0  0  0  0  0  0
    2.7891    1.3707   -1.8760 H   0  0  0  0  0  0  0  0  0  0  0  0
    3.9112    0.8714    1.7394 H   0  0  0  0  0  0  0  0  0  0  0  0
    4.3775   -2.6003    5.3663 H   0  0  0  0  0  0  0  0  0  0  0  0
    5.4749   -3.3166    4.3355 H   0  0  0  0  0  0  0  0  0  0  0  0
    0.9181   -4.7806    2.4904 H   0  0  0  0  0  0  0  0  0  0  0  0
  1  4  1  0  0  0  0
  1 30  1  0  0  0  0
  1  3  1  0  0  0  0
  1  2  2  0  0  0  0
  3 53  1  0  0  0  0
  4  5  1  0  0  0  0
  5  6  1  0  0  0  0
  5 54  1  0  0  0  0
  5 55  1  0  0  0  0
  6  8  1  0  0  0  0
  6 13  1  0  0  0  0
  6  7  1  0  0  0  0
  8  9  1  0  0  0  0
  9 11  1  0  0  0  0
  9 10  1  0  0  0  0
  9 43  1  0  0  0  0
 11 13  1  0  0  0  0
 11 12  1  0  0  0  0
 11 42  1  0  0  0  0
 13 15  1  0  0  0  0
 13 14  1  0  0  0  0
 16 15  1  0  0  0  0
 16 19  1  0  0  0  0
 16 17  2  0  0  0  0
 16 18  1  0  0  0  0
 18 56  1  0  0  0  0
 19 20  1  0  0  0  0
 20 21  1  0  0  0  0
 20 57  1  0  0  0  0
 20 58  1  0  0  0  0
 21 23  1  0  0  0  0
 21 28  1  0  0  0  0
 21 22  1  0  0  0  0
 23 24  1  0  0  0  0
 24 26  1  0  0  0  0
 24 25  1  0  0  0  0
 24 32  1  0  0  0  0
 26 28  1  0  0  0  0
 26 31  1  0  0  0  0
 26 27  1  0  0  0  0
 28 30  1  0  0  0  0
 28 29  1  0  0  0  0
 31 59  1  0  0  0  0
 32 33  1  0  0  0  0
 32 41  1  0  0  0  0
 33 34  2  0  0  0  0
 33 60  1  0  0  0  0
 34 35  1  0  0  0  0
 35 36  2  0  0  0  0
 35 41  1  0  0  0  0
 36 37  1  0  0  0  0
 36 38  1  0  0  0  0
 37 61  1  0  0  0  0
 37 62  1  0  0  0  0
 38 39  2  0  0  0  0
 39 40  1  0  0  0  0
 39 63  1  0  0  0  0
 40 41  2  0  0  0  0
 42 64  1  0  0  0  0
 43 44  1  0  0  0  0
 43 52  1  0  0  0  0
 44 45  2  0  0  0  0
 44 65  1  0  0  0  0
 45 46  1  0  0  0  0
 46 47  2  0  0  0  0
 46 52  1  0  0  0  0
 47 48  1  0  0  0  0
 47 49  1  0  0  0  0
 48 66  1  0  0  0  0
 48 67  1  0  0  0  0
 49 50  2  0  0  0  0
 50 51  1  0  0  0  0
 50 68  1  0  0  0  0
 51 52  2  0  0  0  0
M  END
>  <energy>
134.34556079866587

$$$$
