2B57_6AP_A_91
  1228              3D

 17 18  0  0  0  0  0  0  0  0999 V2000
   -2.2127   -0.8437    0.2615 N   0  0  0  0  0  0  0  0  0  0  0  0
   -2.6874   -1.7341    0.2020 H   0  0  0  0  0  0  0  0  0  0  0  0
   -2.7874    0.3963    0.1595 C   0  0  0  0  0  0  0  0  0  0  0  0
   -1.8840    1.3551    0.1199 N   0  0  0  0  0  0  0  0  0  0  0  0
   -0.6795    0.6991    0.0674 C   0  0  0  0  0  0  0  0  0  0  0  0
   -0.8753   -0.6636    0.0832 C   0  0  0  0  0  0  0  0  0  0  0  0
    0.0565   -1.6120    0.0534 N   0  0  0  0  0  0  0  0  0  0  0  0
    1.2990   -1.0950   -0.0219 C   0  0  0  0  0  0  0  0  0  0  0  0
    2.3521   -2.0160    0.0341 N   0  0  0  0  0  0  0  0  0  0  0  0
    1.6233    0.2202   -0.0286 N   0  0  0  0  0  0  0  0  0  0  0  0
    0.6385    1.1490    0.0113 C   0  0  0  0  0  0  0  0  0  0  0  0
    0.9460    2.5103    0.0068 N   0  0  0  0  0  0  0  0  0  0  0  0
   -3.8530    0.5328    0.2805 H   0  0  0  0  0  0  0  0  0  0  0  0
    3.1081   -1.6939   -0.5632 H   0  0  0  0  0  0  0  0  0  0  0  0
    1.9819   -2.9103   -0.2784 H   0  0  0  0  0  0  0  0  0  0  0  0
    0.3272    3.0011   -0.6353 H   0  0  0  0  0  0  0  0  0  0  0  0
    1.9261    2.6514   -0.2306 H   0  0  0  0  0  0  0  0  0  0  0  0
  1  2  1  0  0  0  0
  3  1  1  0  0  0  0
  4  3  2  0  0  0  0
  5  4  1  0  0  0  0
  6  5  2  0  0  0  0
  6  1  1  0  0  0  0
  7  6  1  0  0  0  0
  8  7  2  0  0  0  0
  9  8  1  0  0  0  0
 10  8  1  0  0  0  0
 11 10  2  0  0  0  0
 11  5  1  0  0  0  0
 12 11  1  0  0  0  0
  3 13  1  0  0  0  0
  9 14  1  0  0  0  0
  9 15  1  0  0  0  0
 12 16  1  0  0  0  0
 12 17  1  0  0  0  0
M  END
>  <energy>
28.313988519808845

$$$$
