2F4T_AB9_B_1
  1228              3D

 78 79  0  0  0  0  0  0  0  0999 V2000
   -0.1609    3.1136    0.3427 C   0  0  0  0  0  0  0  0  0  0  0  0
    0.1909    4.1094    0.5723 H   0  0  0  0  0  0  0  0  0  0  0  0
   -1.7575    3.0763    0.5410 C   0  0  0  0  0  0  0  0  0  0  0  0
   -1.9682    3.1709    1.6225 H   0  0  0  0  0  0  0  0  0  0  0  0
   -2.6091    4.2359   -0.2308 C   0  0  0  0  0  0  0  0  0  0  0  0
   -3.5155    3.7936   -0.6705 H   0  0  0  0  0  0  0  0  0  0  0  0
   -3.0832    5.2034    0.7106 O   0  0  0  0  0  0  0  0  0  0  0  0
   -1.8258    5.0261   -1.4012 C   0  0  0  0  0  0  0  0  0  0  0  0
   -1.4161    5.9666   -0.9802 H   0  0  0  0  0  0  0  0  0  0  0  0
   -2.7264    5.4387   -2.4068 O   0  0  0  0  0  0  0  0  0  0  0  0
   -0.6827    4.0520   -1.8815 C   0  0  0  0  0  0  0  0  0  0  0  0
   -0.6829    4.3620   -0.8752 H   0  0  0  0  0  0  0  0  0  0  0  0
    0.2193    3.0917   -1.1253 O   0  0  0  0  0  0  0  0  0  0  0  0
   -1.4325    3.0490   -2.7648 C   0  0  0  0  0  0  0  0  0  0  0  0
   -1.0629    3.3879   -4.1424 N   0  0  0  0  0  0  0  0  0  0  0  0
   -2.2679    1.7408    0.1813 N   0  0  0  0  0  0  0  0  0  0  0  0
    0.5678    2.2604    1.2256 O   0  0  0  0  0  0  0  0  0  0  0  0
    0.8676    2.8130    2.5488 C   0  0  0  0  0  0  0  0  0  0  0  0
    0.0967    2.4077    3.2098 H   0  0  0  0  0  0  0  0  0  0  0  0
    0.9165    4.3607    2.6688 C   0  0  0  0  0  0  0  0  0  0  0  0
    1.6221    4.7470    1.9197 H   0  0  0  0  0  0  0  0  0  0  0  0
    1.3679    4.8125    4.0271 C   0  0  0  0  0  0  0  0  0  0  0  0
    2.7428    4.3536    4.4184 C   0  0  0  0  0  0  0  0  0  0  0  0
    3.4500    4.7969    3.7075 H   0  0  0  0  0  0  0  0  0  0  0  0
    3.1452    4.9397    5.7376 N   0  0  0  0  0  0  0  0  0  0  0  0
    2.4414    5.3660    6.8487 C   0  0  0  0  0  0  0  0  0  0  0  0
    2.9000    5.1783    7.9868 O   0  0  0  0  0  0  0  0  0  0  0  0
    1.1612    6.1999    6.6937 C   0  0  0  0  0  0  0  0  0  0  0  0
    1.0543    6.6078    5.6956 H   0  0  0  0  0  0  0  0  0  0  0  0
   -0.0389    5.3424    7.1271 C   0  0  0  0  0  0  0  0  0  0  0  0
   -1.3139    5.6413    6.3363 C   0  0  0  0  0  0  0  0  0  0  0  0
   -2.4823    5.4763    7.1861 N   0  0  0  0  0  0  0  0  0  0  0  0
    1.2533    7.3618    7.5115 O   0  0  0  0  0  0  0  0  0  0  0  0
    2.8327    2.8073    4.3143 C   0  0  0  0  0  0  0  0  0  0  0  0
    2.2260    2.3981    5.1350 H   0  0  0  0  0  0  0  0  0  0  0  0
    2.2594    2.2609    2.9681 C   0  0  0  0  0  0  0  0  0  0  0  0
    2.9488    2.4990    2.1538 H   0  0  0  0  0  0  0  0  0  0  0  0
    2.2454    0.8310    3.0339 O   0  0  0  0  0  0  0  0  0  0  0  0
    4.1293    2.2096    4.4968 O   0  0  0  0  0  0  0  0  0  0  0  0
    5.3130    2.9613    4.2702 C   0  0  0  0  0  0  0  0  0  0  0  0
    5.7515    2.9729    2.7985 C   0  0  0  0  0  0  0  0  0  0  0  0
    6.5855    4.1456    2.5623 N   0  0  0  0  0  0  0  0  0  0  0  0
    7.0880    4.3285    1.2004 C   0  0  0  0  0  0  0  0  0  0  0  0
    6.2742    3.7963    0.0152 C   0  0  0  0  0  0  0  0  0  0  0  0
    6.5590    2.3978   -0.2900 N   0  0  0  0  0  0  0  0  0  0  0  0
   -0.3832    5.0211    2.5194 N   0  0  0  0  0  0  0  0  0  0  0  0
   -2.4720    5.2035    1.4746 H   0  0  0  0  0  0  0  0  0  0  0  0
   -2.5043    6.3572   -2.6401 H   0  0  0  0  0  0  0  0  0  0  0  0
   -1.1586    2.0077   -2.5921 H   0  0  0  0  0  0  0  0  0  0  0  0
   -2.5191    3.0920   -2.7012 H   0  0  0  0  0  0  0  0  0  0  0  0
   -1.1607    4.3961   -4.2858 H   0  0  0  0  0  0  0  0  0  0  0  0
   -1.7299    2.9709   -4.7896 H   0  0  0  0  0  0  0  0  0  0  0  0
   -1.7060    1.3455   -0.5699 H   0  0  0  0  0  0  0  0  0  0  0  0
   -3.2207    1.8069   -0.1769 H   0  0  0  0  0  0  0  0  0  0  0  0
    0.6417    4.4573    4.7589 H   0  0  0  0  0  0  0  0  0  0  0  0
    1.3673    5.9001    4.0073 H   0  0  0  0  0  0  0  0  0  0  0  0
    4.1471    4.9354    5.9082 H   0  0  0  0  0  0  0  0  0  0  0  0
   -0.2027    5.4678    8.2043 H   0  0  0  0  0  0  0  0  0  0  0  0
    0.2089    4.2800    6.9938 H   0  0  0  0  0  0  0  0  0  0  0  0
   -1.4057    4.9434    5.4996 H   0  0  0  0  0  0  0  0  0  0  0  0
   -1.3047    6.6520    5.9219 H   0  0  0  0  0  0  0  0  0  0  0  0
   -3.3250    5.6335    6.6375 H   0  0  0  0  0  0  0  0  0  0  0  0
   -2.4814    6.1929    7.9089 H   0  0  0  0  0  0  0  0  0  0  0  0
    1.1292    7.1135    8.4416 H   0  0  0  0  0  0  0  0  0  0  0  0
    1.3810    0.5608    3.3939 H   0  0  0  0  0  0  0  0  0  0  0  0
    6.0894    2.4640    4.8643 H   0  0  0  0  0  0  0  0  0  0  0  0
    5.2444    3.9695    4.6732 H   0  0  0  0  0  0  0  0  0  0  0  0
    4.8756    3.0134    2.1533 H   0  0  0  0  0  0  0  0  0  0  0  0
    6.2882    2.0408    2.5764 H   0  0  0  0  0  0  0  0  0  0  0  0
    7.3754    4.1121    3.2074 H   0  0  0  0  0  0  0  0  0  0  0  0
    8.1224    3.9653    1.1533 H   0  0  0  0  0  0  0  0  0  0  0  0
    7.1584    5.4157    1.0697 H   0  0  0  0  0  0  0  0  0  0  0  0
    6.5263    4.3911   -0.8692 H   0  0  0  0  0  0  0  0  0  0  0  0
    5.2008    3.9339    0.1690 H   0  0  0  0  0  0  0  0  0  0  0  0
    5.8275    1.8027    0.0909 H   0  0  0  0  0  0  0  0  0  0  0  0
    7.4343    2.1036    0.1542 H   0  0  0  0  0  0  0  0  0  0  0  0
   -1.0203    4.7277    3.2563 H   0  0  0  0  0  0  0  0  0  0  0  0
   -0.2741    6.0294    2.5917 H   0  0  0  0  0  0  0  0  0  0  0  0
  1  3  1  0  0  0  0
  1 13  1  0  0  0  0
  1 17  1  0  0  0  0
  1  2  1  0  0  0  0
  3  5  1  0  0  0  0
  3 16  1  0  0  0  0
  3  4  1  0  0  0  0
  5  8  1  0  0  0  0
  5  7  1  0  0  0  0
  5  6  1  0  0  0  0
  7 47  1  0  0  0  0
  8  9  1  0  0  0  0
  8 10  1  0  0  0  0
  8 11  1  0  0  0  0
 10 48  1  0  0  0  0
 11 13  1  0  0  0  0
 11 14  1  0  0  0  0
 11 12  1  0  0  0  0
 14 15  1  0  0  0  0
 14 49  1  0  0  0  0
 14 50  1  0  0  0  0
 15 51  1  0  0  0  0
 15 52  1  0  0  0  0
 16 53  1  0  0  0  0
 16 54  1  0  0  0  0
 18 20  1  0  0  0  0
 18 36  1  0  0  0  0
 18 19  1  0  0  0  0
 18 17  1  0  0  0  0
 20 21  1  0  0  0  0
 20 22  1  0  0  0  0
 20 46  1  0  0  0  0
 22 23  1  0  0  0  0
 22 55  1  0  0  0  0
 22 56  1  0  0  0  0
 23 25  1  0  0  0  0
 23 24  1  0  0  0  0
 25 26  1  0  0  0  0
 25 57  1  0  0  0  0
 26 27  2  0  0  0  0
 26 28  1  0  0  0  0
 28 29  1  0  0  0  0
 28 30  1  0  0  0  0
 28 33  1  0  0  0  0
 30 31  1  0  0  0  0
 30 58  1  0  0  0  0
 30 59  1  0  0  0  0
 31 32  1  0  0  0  0
 31 60  1  0  0  0  0
 31 61  1  0  0  0  0
 32 62  1  0  0  0  0
 32 63  1  0  0  0  0
 33 64  1  0  0  0  0
 34 23  1  0  0  0  0
 34 35  1  0  0  0  0
 34 39  1  0  0  0  0
 36 34  1  0  0  0  0
 36 38  1  0  0  0  0
 36 37  1  0  0  0  0
 38 65  1  0  0  0  0
 39 40  1  0  0  0  0
 40 41  1  0  0  0  0
 40 66  1  0  0  0  0
 40 67  1  0  0  0  0
 41 42  1  0  0  0  0
 41 68  1  0  0  0  0
 41 69  1  0  0  0  0
 42 43  1  0  0  0  0
 42 70  1  0  0  0  0
 43 44  1  0  0  0  0
 43 71  1  0  0  0  0
 43 72  1  0  0  0  0
 44 45  1  0  0  0  0
 44 73  1  0  0  0  0
 44 74  1  0  0  0  0
 45 75  1  0  0  0  0
 45 76  1  0  0  0  0
 46 77  1  0  0  0  0
 46 78  1  0  0  0  0
M  END
>  <energy>
276.69358831657382

$$$$
