2KD4_PRL_A_17
  1228              3D

 27 29  0  0  0  0  0  0  0  0999 V2000
    2.8321   -0.6359   -0.5795 C   0  0  0  0  0  0  0  0  0  0  0  0
    3.6457    0.2165    0.0677 C   0  0  0  0  0  0  0  0  0  0  0  0
    3.1673    1.0785    1.1591 C   0  0  0  0  0  0  0  0  0  0  0  0
    1.9833    0.7614    1.7161 C   0  0  0  0  0  0  0  0  0  0  0  0
    0.9748    0.1172    0.8518 C   0  0  0  0  0  0  0  0  0  0  0  0
   -0.3268    0.3356    1.1452 N   0  0  0  0  0  0  0  0  0  0  0  0
   -1.2564   -0.1898    0.3316 C   0  0  0  0  0  0  0  0  0  0  0  0
   -2.5837    0.1848    0.4779 C   0  0  0  0  0  0  0  0  0  0  0  0
   -3.5754   -0.2848   -0.3836 C   0  0  0  0  0  0  0  0  0  0  0  0
   -3.2435   -1.2227   -1.3660 C   0  0  0  0  0  0  0  0  0  0  0  0
   -1.9169   -1.6204   -1.5222 C   0  0  0  0  0  0  0  0  0  0  0  0
   -0.9167   -1.0754   -0.7105 C   0  0  0  0  0  0  0  0  0  0  0  0
    0.4428   -1.2775   -0.9974 C   0  0  0  0  0  0  0  0  0  0  0  0
    1.4092   -0.6451   -0.2317 C   0  0  0  0  0  0  0  0  0  0  0  0
   -4.8553    0.3100   -0.3767 N   0  0  0  0  0  0  0  0  0  0  0  0
    4.0772    1.9417    1.7509 N   0  0  0  0  0  0  0  0  0  0  0  0
    3.1978   -1.3101   -1.3422 H   0  0  0  0  0  0  0  0  0  0  0  0
    4.7013    0.2541   -0.1828 H   0  0  0  0  0  0  0  0  0  0  0  0
    1.6503    1.1765    2.6552 H   0  0  0  0  0  0  0  0  0  0  0  0
   -2.8738    0.8098    1.3194 H   0  0  0  0  0  0  0  0  0  0  0  0
   -4.0028   -1.6224   -2.0364 H   0  0  0  0  0  0  0  0  0  0  0  0
   -1.6894   -2.4104   -2.2352 H   0  0  0  0  0  0  0  0  0  0  0  0
    0.7305   -1.8778   -1.8531 H   0  0  0  0  0  0  0  0  0  0  0  0
   -5.5489   -0.2834   -0.8288 H   0  0  0  0  0  0  0  0  0  0  0  0
   -5.1579    0.5969    0.5512 H   0  0  0  0  0  0  0  0  0  0  0  0
    4.3590    2.6745    1.0977 H   0  0  0  0  0  0  0  0  0  0  0  0
    3.6810    2.3794    2.5849 H   0  0  0  0  0  0  0  0  0  0  0  0
  2  1  2  0  0  0  0
  3  2  1  0  0  0  0
  4  3  2  0  0  0  0
  5  4  1  0  0  0  0
  6  5  2  0  0  0  0
  7  6  1  0  0  0  0
  8  7  2  0  0  0  0
  9  8  1  0  0  0  0
 10  9  2  0  0  0  0
 11 10  1  0  0  0  0
 12 11  2  0  0  0  0
 12  7  1  0  0  0  0
 13 12  1  0  0  0  0
 14 13  2  0  0  0  0
 14  1  1  0  0  0  0
 14  5  1  0  0  0  0
 15  9  1  0  0  0  0
 16  3  1  0  0  0  0
  1 17  1  0  0  0  0
  2 18  1  0  0  0  0
  4 19  1  0  0  0  0
  8 20  1  0  0  0  0
 10 21  1  0  0  0  0
 11 22  1  0  0  0  0
 13 23  1  0  0  0  0
 15 24  1  0  0  0  0
 15 25  1  0  0  0  0
 16 26  1  0  0  0  0
 16 27  1  0  0  0  0
M  END
>  <energy>
71.675833029517861

$$$$
