ligand.pdb
  1228              3D

 39 41  0  0  0  0  0  0  0  0999 V2000
    2.5085    1.3701   -0.7073 N   0  0  0  0  0  0  0  0  0  0  0  0
    1.9469    2.4267   -0.1799 C   0  0  0  0  0  0  0  0  0  0  0  0
    1.1010    2.1084    0.8734 N   0  0  0  0  0  0  0  0  0  0  0  0
    0.8752    0.7830    1.3232 C   0  0  0  0  0  0  0  0  0  0  0  0
    0.0465    0.5162    2.1938 O   0  0  0  0  0  0  0  0  0  0  0  0
    1.8587   -0.2929    0.7618 C   0  0  0  0  0  0  0  0  0  0  0  0
    2.7073   -0.3251    1.4596 H   0  0  0  0  0  0  0  0  0  0  0  0
    1.2398   -1.6217    0.7309 N   0  0  0  0  0  0  0  0  0  0  0  0
    0.7129   -2.2165   -0.5136 C   0  0  0  0  0  0  0  0  0  0  0  0
    1.2063   -3.1903   -0.5854 H   0  0  0  0  0  0  0  0  0  0  0  0
    1.0596   -1.4376   -1.7855 C   0  0  0  0  0  0  0  0  0  0  0  0
    2.3294   -0.7508   -1.6616 N   0  0  0  0  0  0  0  0  0  0  0  0
    2.4377    0.0696   -0.5819 C   0  0  0  0  0  0  0  0  0  0  0  0
   -0.8211   -2.4317   -0.4316 C   0  0  0  0  0  0  0  0  0  0  0  0
   -1.1157   -3.7882    0.0611 N   0  0  0  0  0  0  0  0  0  0  0  0
   -2.0785   -4.5663   -0.6130 C   0  0  0  0  0  0  0  0  0  0  0  0
   -2.1972   -4.5962   -2.0120 C   0  0  0  0  0  0  0  0  0  0  0  0
   -3.1733   -5.3816   -2.6405 C   0  0  0  0  0  0  0  0  0  0  0  0
   -4.0028   -6.2090   -1.8899 C   0  0  0  0  0  0  0  0  0  0  0  0
   -3.8618   -6.2436   -0.5077 C   0  0  0  0  0  0  0  0  0  0  0  0
   -2.9051   -5.4372    0.1215 C   0  0  0  0  0  0  0  0  0  0  0  0
    1.4409   -2.4638    1.8199 C   0  0  0  0  0  0  0  0  0  0  0  0
    2.5235   -2.8700    2.2229 O   0  0  0  0  0  0  0  0  0  0  0  0
    2.3131    3.6958   -0.5275 N   0  0  0  0  0  0  0  0  0  0  0  0
    0.4725    2.8339    1.2091 H   0  0  0  0  0  0  0  0  0  0  0  0
    0.2768   -0.6973   -1.9817 H   0  0  0  0  0  0  0  0  0  0  0  0
    1.0834   -2.1029   -2.6493 H   0  0  0  0  0  0  0  0  0  0  0  0
    2.6550   -0.3661   -2.5459 H   0  0  0  0  0  0  0  0  0  0  0  0
   -1.2807   -2.2283   -1.4089 H   0  0  0  0  0  0  0  0  0  0  0  0
   -1.2529   -1.7018    0.2629 H   0  0  0  0  0  0  0  0  0  0  0  0
   -1.2992   -3.7760    1.0668 H   0  0  0  0  0  0  0  0  0  0  0  0
   -1.5366   -4.0063   -2.6427 H   0  0  0  0  0  0  0  0  0  0  0  0
   -3.2705   -5.3633   -3.7226 H   0  0  0  0  0  0  0  0  0  0  0  0
   -4.7507   -6.8257   -2.3793 H   0  0  0  0  0  0  0  0  0  0  0  0
   -4.4827   -6.9137    0.0807 H   0  0  0  0  0  0  0  0  0  0  0  0
   -2.8068   -5.5060    1.2027 H   0  0  0  0  0  0  0  0  0  0  0  0
    0.4821   -2.7692    2.2754 H   0  0  0  0  0  0  0  0  0  0  0  0
    2.5643    3.8141   -1.5085 H   0  0  0  0  0  0  0  0  0  0  0  0
    1.6318    4.4115   -0.2888 H   0  0  0  0  0  0  0  0  0  0  0  0
  2  1  2  0  0  0  0
  3  2  1  0  0  0  0
  4  3  1  0  0  0  0
  5  4  2  0  0  0  0
  6  4  1  0  0  0  0
  6  7  1  0  0  0  0
  8  6  1  0  0  0  0
  9  8  1  0  0  0  0
  9 10  1  0  0  0  0
 11  9  1  0  0  0  0
 12 11  1  0  0  0  0
 13 12  1  0  0  0  0
 13  1  2  0  0  0  0
 13  6  1  0  0  0  0
 14  9  1  0  0  0  0
 15 14  1  0  0  0  0
 16 15  1  0  0  0  0
 17 16  2  0  0  0  0
 18 17  1  0  0  0  0
 19 18  2  0  0  0  0
 20 19  1  0  0  0  0
 21 20  2  0  0  0  0
 21 16  1  0  0  0  0
 22  8  1  0  0  0  0
 23 22  2  0  0  0  0
 24  2  1  0  0  0  0
  3 25  1  0  0  0  0
 11 26  1  0  0  0  0
 11 27  1  0  0  0  0
 12 28  1  0  0  0  0
 14 29  1  0  0  0  0
 14 30  1  0  0  0  0
 15 31  1  0  0  0  0
 17 32  1  0  0  0  0
 18 33  1  0  0  0  0
 19 34  1  0  0  0  0
 20 35  1  0  0  0  0
 21 36  1  0  0  0  0
 22 37  1  0  0  0  0
 24 38  1  0  0  0  0
 24 39  1  0  0  0  0
M  END
>  <energy>
122.9423453684803

$$$$
