molecule_00021
 OpenBabel10081814333D
libRbt.so/2013.1/901 2013/11/27
 36 39  0  0  0  0  0  0  0  0999 V2000
    8.7033  -23.6710    5.4550 N   0  0  0  0  0  0  0  0  0  0  0  0
    8.2069  -18.8155    6.6327 C   0  0  0  0  0  0  0  0  0  0  0  0
    8.6768  -17.8969    5.9772 O   0  0  0  0  0  0  0  0  0  0  0  0
    8.9384  -20.0945    6.9444 C   0  0  0  0  0  0  0  0  0  0  0  0
    7.3113  -25.4913    2.8745 N   0  0  0  0  0  0  0  0  0  0  0  0
    6.9689  -18.7698    7.1638 O   0  0  0  0  0  0  0  0  0  0  0  0
    8.7361  -21.1591    5.8707 C   0  0  0  0  0  0  0  0  0  0  0  0
    8.4047  -27.4458    1.1046 N   0  0  0  0  0  0  0  0  0  0  0  0
    6.6024  -28.9257    5.8794 O   0  0  0  0  0  0  0  0  0  0  0  0
    8.4421  -22.5703    6.4118 C   0  0  0  0  0  0  0  0  0  0  0  0
    7.4790  -29.4941    3.9114 N   0  0  0  0  0  0  0  0  0  0  0  0
    8.4392  -30.1377    1.9501 O   0  0  0  0  0  0  0  0  0  0  0  0
    7.9850  -23.4736    4.1683 C   0  0  0  0  0  0  0  0  0  0  0  0
    6.9682  -27.2443    4.4103 N   0  0  0  0  0  0  0  0  0  0  0  0
    6.8552  -24.4842    3.8377 C   0  0  0  0  0  0  0  0  0  0  0  0
    7.7966  -25.0993    1.6101 C   0  0  0  0  0  0  0  0  0  0  0  0
    8.3430  -26.0812    0.7565 C   0  0  0  0  0  0  0  0  0  0  0  0
    7.9463  -27.8140    2.2644 C   0  0  0  0  0  0  0  0  0  0  0  0
    7.9877  -29.2632    2.6695 C   0  0  0  0  0  0  0  0  0  0  0  0
    6.9986  -28.5577    4.7781 C   0  0  0  0  0  0  0  0  0  0  0  0
    7.3741  -26.8260    3.2500 C   0  0  0  0  0  0  0  0  0  0  0  0
    8.8552  -25.7138   -0.4947 C   0  0  0  0  0  0  0  0  0  0  0  0
    8.8395  -24.3820   -0.9404 C   0  0  0  0  0  0  0  0  0  0  0  0
    9.4267  -24.0507   -2.2837 C   0  0  0  0  0  0  0  0  0  0  0  0
    8.2805  -23.3990   -0.1118 C   0  0  0  0  0  0  0  0  0  0  0  0
    8.2055  -21.9419   -0.4850 C   0  0  0  0  0  0  0  0  0  0  0  0
    7.7666  -23.7747    1.1430 C   0  0  0  0  0  0  0  0  0  0  0  0
   10.1570  -23.8429    5.1774 C   0  0  0  0  0  0  0  0  0  0  0  0
   10.6360  -25.2537    5.4186 C   0  0  0  0  0  0  0  0  0  0  0  0
   11.6908  -25.7814    4.6636 C   0  0  0  0  0  0  0  0  0  0  0  0
   11.9461  -27.1504    4.6855 C   0  0  0  0  0  0  0  0  0  0  0  0
   11.1802  -27.9899    5.4922 C   0  0  0  0  0  0  0  0  0  0  0  0
   10.1982  -27.4575    6.3241 C   0  0  0  0  0  0  0  0  0  0  0  0
    9.9306  -26.0911    6.2942 C   0  0  0  0  0  0  0  0  0  0  0  0
    6.4126  -18.0811    6.7454 H   0  0  0  0  0  0  0  0  0  0  0  0
    7.4755  -30.4437    4.2451 H   0  0  0  0  0  0  0  0  0  0  0  0
  1 10  1  0  0  0  0
  1 13  1  0  0  0  0
  1 28  1  0  0  0  0
  2  4  1  0  0  0  0
  2  3  2  0  0  0  0
  2  6  1  0  0  0  0
  4  7  1  0  0  0  0
  5 15  1  0  0  0  0
  5 16  1  0  0  0  0
  5 21  1  0  0  0  0
  6 35  1  0  0  0  0
  7 10  1  0  0  0  0
  8 17  1  0  0  0  0
  9 20  2  0  0  0  0
 11 19  1  0  0  0  0
 11 20  1  0  0  0  0
 11 36  1  0  0  0  0
 12 19  2  0  0  0  0
 13 15  1  0  0  0  0
 14 20  1  0  0  0  0
 14 21  2  0  0  0  0
 16 17  2  0  0  0  0
 16 27  1  0  0  0  0
 17 22  1  0  0  0  0
 18  8  2  0  0  0  0
 18 19  1  0  0  0  0
 18 21  1  0  0  0  0
 22 23  2  0  0  0  0
 23 24  1  0  0  0  0
 23 25  1  0  0  0  0
 25 26  1  0  0  0  0
 25 27  2  0  0  0  0
 28 29  1  0  0  0  0
 29 30  2  0  0  0  0
 29 34  1  0  0  0  0
 30 31  1  0  0  0  0
 31 32  2  0  0  0  0
 32 33  1  0  0  0  0
 33 34  2  0  0  0  0
M  END
>  <CHROM.0>
60.07559295,75.96571914,-169.06062620,-171.52395487,-131.86866034,54.14278143
-71.00642592,-37.38484744,-64.25143773,-173.75030346,-58.42078822,175.98495734
-58.97272889,-172.75038732,-50.88530168,-44.87576932,-73.14616247,-176.70200352
-48.02744443,-63.37246411

>  <CHROM.1>
-54.27003551,-113.07573016,125.91422282,-88.70259517,17.84658021,-135.48171335
-58.29850000,-159.86242103,-101.40009817,149.15424320,8.56512894,-24.93023840
3.66276918,-1.56907536,1.48267728,-2.74392738

>  <Name>


>  <RI>
2.53522e+07

>  <Rbt.Current_Directory>
/home/fstefaniak/gitlab/AnnapuRNA-publication/case_studies/6DN2/2YIF

>  <Rbt.Executable>
rbdock ($Id: //depot/dev/client3/rdock/2013.1/src/exe/rbdock.cxx#4 $)

>  <Rbt.Library>
libRbt.so (2013.1, Build901 2013/11/27)

>  <Rbt.Parameter_File>
/home/fstefaniak/progs/rDock//data/scripts/dock_solv.prm

>  <Rbt.Receptor>
system.prm

>  <SCORE>
-103.387

>  <SCORE.INTER>
-72.4643

>  <SCORE.INTER.CONST>
1

>  <SCORE.INTER.POLAR>
-6.44712

>  <SCORE.INTER.ROT>
9

>  <SCORE.INTER.SOLV>
21.2595

>  <SCORE.INTER.VDW>
-43.5056

>  <SCORE.INTER.norm>
-2.1313

>  <SCORE.INTRA>
6.48052

>  <SCORE.INTRA.DIHEDRAL>
15.6847

>  <SCORE.INTRA.DIHEDRAL.0>
6.40188

>  <SCORE.INTRA.POLAR>
0

>  <SCORE.INTRA.POLAR.0>
0

>  <SCORE.INTRA.REPUL>
0.0837516

>  <SCORE.INTRA.REPUL.0>
0

>  <SCORE.INTRA.SOLV>
-0.467741

>  <SCORE.INTRA.SOLV.lig_0>
-26.6032

>  <SCORE.INTRA.VDW>
-1.54672

>  <SCORE.INTRA.VDW.0>
-0.660127

>  <SCORE.INTRA.norm>
0.190603

>  <SCORE.RESTR>
0

>  <SCORE.RESTR.CAVITY>
0

>  <SCORE.RESTR.norm>
0

>  <SCORE.SYSTEM>
-37.4031

>  <SCORE.SYSTEM.CONST>
0

>  <SCORE.SYSTEM.DIHEDRAL>
17.718

>  <SCORE.SYSTEM.POLAR>
-7.6973

>  <SCORE.SYSTEM.SOLV>
-0.382118

>  <SCORE.SYSTEM.VDW>
-5.0564

>  <SCORE.SYSTEM.norm>
-1.10009

>  <SCORE.heavy>
34

>  <SCORE.norm>
-3.04079

>  <Pose_Number>
21

>  <AnnapuRNA Score>
-332.431139898

$$$$
