3WRU_SJP_A_101
  1228              3D

 98101  0  0  0  0  0  0  0  0999 V2000
   -1.8216    1.4105    2.6235 C   0  0  0  0  0  0  0  0  0  0  0  0
   -0.9085    1.2598    2.0345 H   0  0  0  0  0  0  0  0  0  0  0  0
   -1.5276    0.9900    4.0964 C   0  0  0  0  0  0  0  0  0  0  0  0
   -0.7068    0.2622    4.0417 H   0  0  0  0  0  0  0  0  0  0  0  0
   -1.0427    2.1426    4.9791 C   0  0  0  0  0  0  0  0  0  0  0  0
   -0.3660    3.1929    4.1198 C   0  0  0  0  0  0  0  0  0  0  0  0
   -1.4302    3.7770    3.1915 C   0  0  0  0  0  0  0  0  0  0  0  0
   -2.1555    4.3100    3.8187 H   0  0  0  0  0  0  0  0  0  0  0  0
   -0.8244    4.7642    2.1941 C   0  0  0  0  0  0  0  0  0  0  0  0
   -1.8725    5.5728    1.5779 N   0  0  0  0  0  0  0  0  0  0  0  0
   -2.1938    2.7847    2.4946 O   0  0  0  0  0  0  0  0  0  0  0  0
   -2.6420    0.2854    4.7406 N   0  0  0  0  0  0  0  0  0  0  0  0
   -2.8927    0.6276    2.0831 O   0  0  0  0  0  0  0  0  0  0  0  0
   -2.6734   -0.2520    0.9733 C   0  0  0  0  0  0  0  0  0  0  0  0
   -3.6769   -0.6537    0.7867 H   0  0  0  0  0  0  0  0  0  0  0  0
   -2.1943    0.4559   -0.3161 C   0  0  0  0  0  0  0  0  0  0  0  0
   -1.2955    1.0258   -0.0704 H   0  0  0  0  0  0  0  0  0  0  0  0
   -1.9019   -0.5414   -1.4732 C   0  0  0  0  0  0  0  0  0  0  0  0
   -2.4047   -0.2133   -2.3896 H   0  0  0  0  0  0  0  0  0  0  0  0
   -2.2653   -2.0077   -1.1789 C   0  0  0  0  0  0  0  0  0  0  0  0
   -1.7913   -2.6310   -1.9467 H   0  0  0  0  0  0  0  0  0  0  0  0
   -1.6949   -2.4639    0.1725 C   0  0  0  0  0  0  0  0  0  0  0  0
   -1.7409   -1.4276    1.3149 C   0  0  0  0  0  0  0  0  0  0  0  0
   -0.7232   -1.0428    1.4633 H   0  0  0  0  0  0  0  0  0  0  0  0
   -2.1467   -2.0875    2.5608 N   0  0  0  0  0  0  0  0  0  0  0  0
   -3.7005   -2.2454   -1.3690 N   0  0  0  0  0  0  0  0  0  0  0  0
   -4.3493   -3.4382   -1.0742 C   0  0  0  0  0  0  0  0  0  0  0  0
   -5.2712   -3.4944   -0.2706 O   0  0  0  0  0  0  0  0  0  0  0  0
   -3.8004   -4.6724   -1.7992 C   0  0  0  0  0  0  0  0  0  0  0  0
   -3.2120   -4.3539   -2.6678 H   0  0  0  0  0  0  0  0  0  0  0  0
   -4.8650   -5.6768   -2.2770 C   0  0  0  0  0  0  0  0  0  0  0  0
   -5.2068   -5.3914   -3.2781 H   0  0  0  0  0  0  0  0  0  0  0  0
   -4.4275   -7.1487   -2.2989 C   0  0  0  0  0  0  0  0  0  0  0  0
   -3.2433   -7.3984   -3.1113 N   0  0  0  0  0  0  0  0  0  0  0  0
   -5.9604   -5.6133   -1.4654 F   0  0  0  0  0  0  0  0  0  0  0  0
   -2.9151   -5.2866   -0.8723 O   0  0  0  0  0  0  0  0  0  0  0  0
   -0.4995   -0.5044   -1.7544 O   0  0  0  0  0  0  0  0  0  0  0  0
   -3.2035    1.3547   -0.7830 O   0  0  0  0  0  0  0  0  0  0  0  0
   -2.7982    2.7114   -1.0065 C   0  0  0  0  0  0  0  0  0  0  0  0
   -2.7334    3.2109   -0.0375 H   0  0  0  0  0  0  0  0  0  0  0  0
   -1.5355    2.9370   -1.8534 C   0  0  0  0  0  0  0  0  0  0  0  0
   -0.7068    2.2481   -1.6643 H   0  0  0  0  0  0  0  0  0  0  0  0
   -2.0989    2.8026   -3.2546 C   0  0  0  0  0  0  0  0  0  0  0  0
   -2.2926    1.7517   -3.4521 H   0  0  0  0  0  0  0  0  0  0  0  0
   -3.3942    3.5916   -3.1049 C   0  0  0  0  0  0  0  0  0  0  0  0
   -3.1904    4.6674   -3.1722 H   0  0  0  0  0  0  0  0  0  0  0  0
   -4.4569    3.2337   -4.1295 C   0  0  0  0  0  0  0  0  0  0  0  0
   -4.1574    3.8830   -5.3615 O   0  0  0  0  0  0  0  0  0  0  0  0
   -3.8544    3.3603   -1.7582 O   0  0  0  0  0  0  0  0  0  0  0  0
   -1.3355    3.3935   -4.2838 O   0  0  0  0  0  0  0  0  0  0  0  0
   -0.3972    2.5850   -4.9914 C   0  0  0  0  0  0  0  0  0  0  0  0
    0.2252    3.3516   -5.4653 H   0  0  0  0  0  0  0  0  0  0  0  0
   -0.9843    1.7269   -6.1444 C   0  0  0  0  0  0  0  0  0  0  0  0
   -1.5531    2.3740   -6.8201 H   0  0  0  0  0  0  0  0  0  0  0  0
    0.1620    1.0477   -6.9131 C   0  0  0  0  0  0  0  0  0  0  0  0
    1.1484    0.3582   -5.9600 C   0  0  0  0  0  0  0  0  0  0  0  0
    1.6222    1.3621   -4.9018 C   0  0  0  0  0  0  0  0  0  0  0  0
    2.0855    2.2311   -5.3907 H   0  0  0  0  0  0  0  0  0  0  0  0
    2.6098    0.7324   -3.9252 C   0  0  0  0  0  0  0  0  0  0  0  0
    3.2650    1.7772   -3.1438 N   0  0  0  0  0  0  0  0  0  0  0  0
    0.4612    1.7947   -4.1624 O   0  0  0  0  0  0  0  0  0  0  0  0
   -1.8906    0.6682   -5.6980 N   0  0  0  0  0  0  0  0  0  0  0  0
   -1.0929    4.2788   -1.6422 O   0  0  0  0  0  0  0  0  0  0  0  0
   -1.8782    2.6156    5.5154 H   0  0  0  0  0  0  0  0  0  0  0  0
   -0.3534    1.7714    5.7484 H   0  0  0  0  0  0  0  0  0  0  0  0
    0.4620    2.7587    3.5482 H   0  0  0  0  0  0  0  0  0  0  0  0
    0.0508    3.9842    4.7559 H   0  0  0  0  0  0  0  0  0  0  0  0
   -0.1230    5.4317    2.7071 H   0  0  0  0  0  0  0  0  0  0  0  0
   -0.2641    4.2329    1.4179 H   0  0  0  0  0  0  0  0  0  0  0  0
   -1.7019    6.5596    1.7676 H   0  0  0  0  0  0  0  0  0  0  0  0
   -1.8331    5.4708    0.5648 H   0  0  0  0  0  0  0  0  0  0  0  0
   -2.2846   -0.5218    5.2541 H   0  0  0  0  0  0  0  0  0  0  0  0
   -3.0963    0.8800    5.4313 H   0  0  0  0  0  0  0  0  0  0  0  0
   -2.1559   -3.4053    0.4800 H   0  0  0  0  0  0  0  0  0  0  0  0
   -0.6337   -2.7103    0.0108 H   0  0  0  0  0  0  0  0  0  0  0  0
   -1.6168   -1.6896    3.3337 H   0  0  0  0  0  0  0  0  0  0  0  0
   -1.8807   -3.0721    2.5520 H   0  0  0  0  0  0  0  0  0  0  0  0
   -4.2939   -1.4322   -1.4875 H   0  0  0  0  0  0  0  0  0  0  0  0
   -4.2495   -7.5074   -1.2780 H   0  0  0  0  0  0  0  0  0  0  0  0
   -5.2474   -7.7565   -2.6983 H   0  0  0  0  0  0  0  0  0  0  0  0
   -3.2701   -6.8366   -3.9599 H   0  0  0  0  0  0  0  0  0  0  0  0
   -2.4104   -7.1129   -2.5981 H   0  0  0  0  0  0  0  0  0  0  0  0
   -3.4339   -5.5576   -0.0955 H   0  0  0  0  0  0  0  0  0  0  0  0
   -0.3592   -1.0262   -2.5632 H   0  0  0  0  0  0  0  0  0  0  0  0
   -4.5086    2.1568   -4.3099 H   0  0  0  0  0  0  0  0  0  0  0  0
   -5.4413    3.5826   -3.8096 H   0  0  0  0  0  0  0  0  0  0  0  0
   -4.7857    3.5540   -6.0273 H   0  0  0  0  0  0  0  0  0  0  0  0
    0.7024    1.8061   -7.4914 H   0  0  0  0  0  0  0  0  0  0  0  0
   -0.2228    0.3211   -7.6411 H   0  0  0  0  0  0  0  0  0  0  0  0
    1.9951   -0.0329   -6.5361 H   0  0  0  0  0  0  0  0  0  0  0  0
    0.6756   -0.5039   -5.4748 H   0  0  0  0  0  0  0  0  0  0  0  0
    2.1095    0.0263   -3.2538 H   0  0  0  0  0  0  0  0  0  0  0  0
    3.3792    0.1779   -4.4712 H   0  0  0  0  0  0  0  0  0  0  0  0
    4.0029    1.3640   -2.5763 H   0  0  0  0  0  0  0  0  0  0  0  0
    2.5920    2.1787   -2.4917 H   0  0  0  0  0  0  0  0  0  0  0  0
   -1.4437    0.1112   -4.9690 H   0  0  0  0  0  0  0  0  0  0  0  0
   -2.7179    1.0811   -5.2800 H   0  0  0  0  0  0  0  0  0  0  0  0
   -0.1606    4.3251   -1.9115 H   0  0  0  0  0  0  0  0  0  0  0  0
  1  2  1  0  0  0  0
  3  1  1  0  0  0  0
  3  4  1  0  0  0  0
  5  3  1  0  0  0  0
  6  5  1  0  0  0  0
  7  6  1  0  0  0  0
  7  8  1  0  0  0  0
  9  7  1  0  0  0  0
 10  9  1  0  0  0  0
 11  7  1  0  0  0  0
 11  1  1  0  0  0  0
 12  3  1  0  0  0  0
 13  1  1  0  0  0  0
 14 13  1  0  0  0  0
 14 15  1  0  0  0  0
 16 14  1  0  0  0  0
 16 17  1  0  0  0  0
 18 16  1  0  0  0  0
 18 19  1  0  0  0  0
 20 18  1  0  0  0  0
 20 21  1  0  0  0  0
 22 20  1  0  0  0  0
 23 22  1  0  0  0  0
 23 24  1  0  0  0  0
 23 14  1  0  0  0  0
 25 23  1  0  0  0  0
 26 20  1  0  0  0  0
 27 26  1  0  0  0  0
 28 27  2  0  0  0  0
 29 27  1  0  0  0  0
 29 30  1  0  0  0  0
 31 29  1  0  0  0  0
 31 32  1  0  0  0  0
 33 31  1  0  0  0  0
 34 33  1  0  0  0  0
 35 31  1  0  0  0  0
 36 29  1  0  0  0  0
 37 18  1  0  0  0  0
 38 16  1  0  0  0  0
 39 38  1  0  0  0  0
 39 40  1  0  0  0  0
 41 39  1  0  0  0  0
 41 42  1  0  0  0  0
 43 41  1  0  0  0  0
 43 44  1  0  0  0  0
 45 43  1  0  0  0  0
 45 46  1  0  0  0  0
 47 45  1  0  0  0  0
 48 47  1  0  0  0  0
 49 45  1  0  0  0  0
 49 39  1  0  0  0  0
 50 43  1  0  0  0  0
 51 50  1  0  0  0  0
 51 52  1  0  0  0  0
 53 51  1  0  0  0  0
 53 54  1  0  0  0  0
 55 53  1  0  0  0  0
 56 55  1  0  0  0  0
 57 56  1  0  0  0  0
 57 58  1  0  0  0  0
 59 57  1  0  0  0  0
 60 59  1  0  0  0  0
 61 57  1  0  0  0  0
 61 51  1  0  0  0  0
 62 53  1  0  0  0  0
 63 41  1  0  0  0  0
  5 64  1  0  0  0  0
  5 65  1  0  0  0  0
  6 66  1  0  0  0  0
  6 67  1  0  0  0  0
  9 68  1  0  0  0  0
  9 69  1  0  0  0  0
 10 70  1  0  0  0  0
 10 71  1  0  0  0  0
 12 72  1  0  0  0  0
 12 73  1  0  0  0  0
 22 74  1  0  0  0  0
 22 75  1  0  0  0  0
 25 76  1  0  0  0  0
 25 77  1  0  0  0  0
 26 78  1  0  0  0  0
 33 79  1  0  0  0  0
 33 80  1  0  0  0  0
 34 81  1  0  0  0  0
 34 82  1  0  0  0  0
 36 83  1  0  0  0  0
 37 84  1  0  0  0  0
 47 85  1  0  0  0  0
 47 86  1  0  0  0  0
 48 87  1  0  0  0  0
 55 88  1  0  0  0  0
 55 89  1  0  0  0  0
 56 90  1  0  0  0  0
 56 91  1  0  0  0  0
 59 92  1  0  0  0  0
 59 93  1  0  0  0  0
 60 94  1  0  0  0  0
 60 95  1  0  0  0  0
 62 96  1  0  0  0  0
 62 97  1  0  0  0  0
 63 98  1  0  0  0  0
M  END
>  <energy>
151.19180594876869

$$$$
