ligand.pdb
  1228              3D

 22 21  0  0  0  0  0  0  0  0999 V2000
   -3.0963    0.7742    1.1600 O   0  0  0  0  0  0  0  0  0  0  0  0
   -2.7254    0.4986   -0.1172 C   0  0  0  0  0  0  0  0  0  0  0  0
   -1.5656    0.5745   -0.5019 O   0  0  0  0  0  0  0  0  0  0  0  0
   -3.9206    0.1024   -0.9723 C   0  0  0  0  0  0  0  0  0  0  0  0
   -4.5231    1.0011   -1.1515 H   0  0  0  0  0  0  0  0  0  0  0  0
   -3.4284   -0.4011   -2.2559 N   0  0  0  0  0  0  0  0  0  0  0  0
   -4.7783   -0.9612   -0.2784 C   0  0  0  0  0  0  0  0  0  0  0  0
   -5.6843   -1.5404   -1.2190 O   0  0  0  0  0  0  0  0  0  0  0  0
   -5.7263   -2.9645   -1.1574 C   0  0  0  0  0  0  0  0  0  0  0  0
   -6.3435   -3.4710   -2.4547 C   0  0  0  0  0  0  0  0  0  0  0  0
   -6.0433   -4.8890   -2.6113 N   0  0  0  0  0  0  0  0  0  0  0  0
   -3.5362    1.6462    1.2528 H   0  0  0  0  0  0  0  0  0  0  0  0
   -3.4598    0.3382   -2.9560 H   0  0  0  0  0  0  0  0  0  0  0  0
   -2.4567   -0.6989   -2.1842 H   0  0  0  0  0  0  0  0  0  0  0  0
   -4.1537   -1.7174    0.2138 H   0  0  0  0  0  0  0  0  0  0  0  0
   -5.3912   -0.4876    0.4971 H   0  0  0  0  0  0  0  0  0  0  0  0
   -6.3428   -3.2555   -0.2998 H   0  0  0  0  0  0  0  0  0  0  0  0
   -4.7176   -3.3769   -1.0271 H   0  0  0  0  0  0  0  0  0  0  0  0
   -5.9462   -2.9187   -3.3141 H   0  0  0  0  0  0  0  0  0  0  0  0
   -7.4292   -3.3239   -2.4407 H   0  0  0  0  0  0  0  0  0  0  0  0
   -6.5435   -5.2581   -3.4180 H   0  0  0  0  0  0  0  0  0  0  0  0
   -5.0516   -4.9978   -2.8223 H   0  0  0  0  0  0  0  0  0  0  0  0
  2  1  1  0  0  0  0
  3  2  2  0  0  0  0
  4  2  1  0  0  0  0
  4  5  1  0  0  0  0
  6  4  1  0  0  0  0
  7  4  1  0  0  0  0
  8  7  1  0  0  0  0
  9  8  1  0  0  0  0
 10  9  1  0  0  0  0
 11 10  1  0  0  0  0
  1 12  1  0  0  0  0
  6 13  1  0  0  0  0
  6 14  1  0  0  0  0
  7 15  1  0  0  0  0
  7 16  1  0  0  0  0
  9 17  1  0  0  0  0
  9 18  1  0  0  0  0
 10 19  1  0  0  0  0
 10 20  1  0  0  0  0
 11 21  1  0  0  0  0
 11 22  1  0  0  0  0
M  END
>  <energy>
23.992139062656193

$$$$
