1AM0_AMP_A_41
  1228              3D

 37 39  0  0  0  0  0  0  0  0999 V2000
   -5.4507   -1.3578    0.9189 P   0  0  0  0  0  0  0  0  0  0  0  0
   -5.4812   -2.5892    1.7726 O   0  0  0  0  0  0  0  0  0  0  0  0
   -6.7887   -0.4519    1.0014 O   0  0  0  0  0  0  0  0  0  0  0  0
   -5.3340   -1.6256   -0.6652 O   0  0  0  0  0  0  0  0  0  0  0  0
   -4.2851   -0.2988    1.2615 O   0  0  0  0  0  0  0  0  0  0  0  0
   -2.9056   -0.6200    1.1252 C   0  0  0  0  0  0  0  0  0  0  0  0
   -2.4369   -0.1215   -0.2333 C   0  0  0  0  0  0  0  0  0  0  0  0
   -3.1132    0.6774   -0.5671 H   0  0  0  0  0  0  0  0  0  0  0  0
   -1.1256    0.4856   -0.1691 O   0  0  0  0  0  0  0  0  0  0  0  0
   -0.5834    0.3345   -1.4984 C   0  0  0  0  0  0  0  0  0  0  0  0
   -1.1269    1.0022   -2.1867 H   0  0  0  0  0  0  0  0  0  0  0  0
   -0.8953   -1.1240   -1.7934 C   0  0  0  0  0  0  0  0  0  0  0  0
   -0.2623   -1.7952   -1.2009 H   0  0  0  0  0  0  0  0  0  0  0  0
   -2.3279   -1.2278   -1.2938 C   0  0  0  0  0  0  0  0  0  0  0  0
   -2.5504   -2.2332   -0.9275 H   0  0  0  0  0  0  0  0  0  0  0  0
   -3.2228   -0.9537   -2.3712 O   0  0  0  0  0  0  0  0  0  0  0  0
   -0.8065   -1.4764   -3.1573 O   0  0  0  0  0  0  0  0  0  0  0  0
    0.8049    0.7718   -1.4946 N   0  0  0  0  0  0  0  0  0  0  0  0
    1.8286    0.0899   -2.1241 C   0  0  0  0  0  0  0  0  0  0  0  0
    2.9011    0.8364   -2.2702 N   0  0  0  0  0  0  0  0  0  0  0  0
    2.4579    2.1162   -2.0728 C   0  0  0  0  0  0  0  0  0  0  0  0
    3.1203    3.3487   -2.1723 C   0  0  0  0  0  0  0  0  0  0  0  0
    4.4588    3.4325   -2.5823 N   0  0  0  0  0  0  0  0  0  0  0  0
    2.4231    4.4609   -1.8093 N   0  0  0  0  0  0  0  0  0  0  0  0
    1.1459    4.3121   -1.3795 C   0  0  0  0  0  0  0  0  0  0  0  0
    0.4376    3.1782   -1.2117 N   0  0  0  0  0  0  0  0  0  0  0  0
    1.1342    2.1136   -1.6555 C   0  0  0  0  0  0  0  0  0  0  0  0
   -7.1542   -0.0840    0.1697 H   0  0  0  0  0  0  0  0  0  0  0  0
   -4.7387   -2.3305   -1.0023 H   0  0  0  0  0  0  0  0  0  0  0  0
   -2.7507   -1.6966    1.2687 H   0  0  0  0  0  0  0  0  0  0  0  0
   -2.3732   -0.1064    1.9294 H   0  0  0  0  0  0  0  0  0  0  0  0
   -3.9812   -0.4511   -2.0299 H   0  0  0  0  0  0  0  0  0  0  0  0
    0.0629   -1.2127   -3.4930 H   0  0  0  0  0  0  0  0  0  0  0  0
    1.8352   -0.9898   -2.1951 H   0  0  0  0  0  0  0  0  0  0  0  0
    4.7155    4.3980   -2.7689 H   0  0  0  0  0  0  0  0  0  0  0  0
    4.6235    2.8717   -3.4162 H   0  0  0  0  0  0  0  0  0  0  0  0
    0.6656    5.2222   -1.0365 H   0  0  0  0  0  0  0  0  0  0  0  0
  2  1  2  0  0  0  0
  3  1  1  0  0  0  0
  4  1  1  0  0  0  0
  5  1  1  0  0  0  0
  6  5  1  0  0  0  0
  7  6  1  0  0  0  0
  7  8  1  0  0  0  0
  9  7  1  0  0  0  0
 10  9  1  0  0  0  0
 10 11  1  0  0  0  0
 12 10  1  0  0  0  0
 12 13  1  0  0  0  0
 14 12  1  0  0  0  0
 14 15  1  0  0  0  0
 14  7  1  0  0  0  0
 16 14  1  0  0  0  0
 17 12  1  0  0  0  0
 18 10  1  0  0  0  0
 19 18  1  0  0  0  0
 20 19  2  0  0  0  0
 21 20  1  0  0  0  0
 22 21  1  0  0  0  0
 23 22  1  0  0  0  0
 24 22  2  0  0  0  0
 25 24  1  0  0  0  0
 26 25  2  0  0  0  0
 27 26  1  0  0  0  0
 27 18  1  0  0  0  0
 27 21  2  0  0  0  0
  3 28  1  0  0  0  0
  4 29  1  0  0  0  0
  6 30  1  0  0  0  0
  6 31  1  0  0  0  0
 16 32  1  0  0  0  0
 17 33  1  0  0  0  0
 19 34  1  0  0  0  0
 23 35  1  0  0  0  0
 23 36  1  0  0  0  0
 25 37  1  0  0  0  0
M  END
>  <energy>
45.817101055860292

$$$$
